         MACRO                                                                  
&L       OPTION &TOKEN,&SETORCLR,&OPTIONS,&FLAGS,&MASK                          
.*                                                                              
.*       Created 08/11/99 by M. Durket. Based on SCKW                           
.*       macro created by Jim Nisbet and Charley Hoyt.                          
.*                                                                              
         GBLA  &$COUNT                                                          
         GBLC  &$CSTR                                                           
         GBLA  &SCKWCNT                                                         
.*                                                                              
         LCLB  &P2FLG                                                           
         LCLB  &A,&A1,&S                                                        
         LCLB  &DONTBL                                                          
         LCLA  &TOKLEN,&COUNT                                                   
         LCLA  &KWFLG1,&KWFLG3                                                  
         LCLC  &RTNINST                                                         
         LCLC  &OPT                                                             
.*                                                                              
.*       PROCESS INPUT ARGS A BIT                                               
.*                                                                              
         AIF   ('&TOKEN' EQ '').MISSTOK                                         
         AIF   ('&FLAGS' EQ '').MISSFLG                                         
&P2FLG   SETB  ('&MASK' NE '')                                                  
&TOKLEN  SETA  K'&TOKEN                                                         
.*                                                                              
.*       PROCESS OPTIONS FIELD                                                  
.*                                                                              
.OLOOP   AIF   (&COUNT GE N'&OPTIONS).ODONE                                     
&COUNT   SETA  &COUNT+1                                                         
&OPT     SETC  '&OPTIONS(&COUNT)'                                               
         AIF   ('&OPT' EQ '').OLOOP                                             
         AIF   ('&OPT' EQ 'A').A                                                
         AIF   ('&OPT' EQ 'A1').A1                                              
         AIF   ('&OPT' EQ 'S').S                                                
         AIF   ('&OPT' EQ 'DONTBLANK').DONTBL                                   
         MNOTE 8,'&OPT is an unknown keyword option'                            
         MEXIT                                                                  
         AGO   .OLOOP                                                           
.*                                                                              
.A       ANOP                                                                   
&A       SETB  1                                                                
         AGO   .OLOOP                                                           
.*                                                                              
.A1      ANOP                                                                   
&A1      SETB  1                                                                
         AGO   .OLOOP                                                           
.*                                                                              
.S       ANOP                                                                   
&S       SETB  1                                                                
         AGO   .OLOOP                                                           
.*                                                                              
.DONTBL  ANOP                                                                   
&DONTBL  SETB  1                                                                
         AGO   .OLOOP                                                           
.*                                                                              
.ODONE   ANOP                                                                   
.*                                                                              
.*  PROCESS SET OR CLEAR INDICATION                                             
.*                                                                              
.DORTN   ANOP                                                                   
         AIF   ('&SETORCLR' EQ '').MISSRTN                                      
         AIF   ('&SETORCLR' EQ 'SET').RSET                                      
         AIF   ('&SETORCLR' EQ 'CLR').RCLEAR                                    
         AIF   ('&SETORCLR' EQ 'CLEAR').RCLEAR                                  
         AGO   .MISSRTN                                                         
.RSET    ANOP                                                                   
&RTNINST SETC  'SET'                                                            
         AGO   .RDONE                                                           
.RCLEAR  ANOP                                                                   
&RTNINST SETC  'CLEAR'                                                          
         AGO   .RDONE                                                           
.RDONE   ANOP                                                                   
.*                                                                              
.*       SET UP FLAGS                                                           
.*                                                                              
&KWFLG1  SETA  X'80'+&P2FLG*X'40'+X'20'+X'10'                                   
&KWFLG3  SETA  &A*X'80'+&A1*X'40'+&S*X'20'+&DONTBL*X'10'                        
.*                                                                              
.*                                                                              
.*                                                                              
.*       Generate the assembly language version.                                
.*                                                                              
&L       DS    0F                                                               
         DC    CL16'&TOKEN '       Token                                        
         DC    AL2(&TOKLEN)        Token length                                 
         DC    AL1(&KWFLG1)        Flags 1                                      
         DC    AL1(0)                    2                                      
         DC    AL1(&KWFLG3)              3                                      
         DC    AL1(0)                    4                                      
         DC    AL1(0)                    5                                      
         DC    AL1(0)                    6                                      
                                                                                
         &RTNINST &FLAGS                                                        
         AIF   (&P2FLG).GNP2                                                    
         NOP   0                                                                
         AGO   .GNMAT                                                           
.GNP2    ANOP                                                                   
         CLEAR &MASK                                                            
.GNMAT   ANOP                                                                   
         DC    V(MOPTION)          Match routine address                        
         DC    V(SCNSCFLG)         Routine address                              
.EXIT    MEXIT                                                                  
.*                                                                              
.*  Errors.                                                                     
.*                                                                              
.MISSTOK MNOTE 8,'Missing TOKEN specification.'                                 
         MEXIT                                                                  
.MISSRTN MNOTE 8,'Missing SET/CLEAR indication.'                                
         MEXIT                                                                  
.MISSFLG MNOTE 8,'Missing FLAG bits.'                                           
         MEXIT                                                                  
         MEND                                                                   
