         MACRO                                                                  
&NAME    PRIVRTN &PARM1                                                         
         LA    R15,&PARM1                                                       
         A     R15,=F'256'                                                      
         VCALL LOCLEXIT                                                         
         MEND                                                                   
