         MACRO                                                                  
.*                                                                              
.*  DEFINE A RECORD GROUP                                                       
.*                                                                              
.*                                                                              
.*  CAUTION: BE CAREFUL WITH FULLWORD/HALFWORD ALIGNMENTS.                      
.*           TOTAL LENGTH MUST BE 32.  (CAN BE EXPANDED IF NEEDED.)             
.*                                                                              
&NAME    RG    &PREFIX=NULL                                                     
         AIF   (('&NAME' NE '') AND ('&PREFIX' NE 'NULL')).BOTH                 
         AIF   (('&NAME' NE '') AND ('&PREFIX' EQ 'NULL')).NAME                 
         AIF   (('&NAME' EQ '') AND ('&PREFIX' NE 'NULL')).PREFIX               
         AIF   (('&NAME' EQ '') AND ('&PREFIX' EQ 'NULL')).NONE                 
.*                                                                              
.NAME    ANOP                                                                   
         DS    0H                                                               
&NAME    DS    XL32                                                             
         MEXIT                                                                  
.*                                                                              
.PREFIX  ANOP                                                                   
&PREFIX.GRP   DS      F                 RECORD GROUP (PAGE #)                   
&PREFIX.SET   DS      F                 RECORD SET NUMBER                       
&PREFIX.NLEN  DS      H                 RECORD NAME LENGTH                      
&PREFIX.FLGS  DS      X                 FLAGS,,, NOT USED                       
&PREFIX.SPLT  DS      X                 SPLIT VALUE (IN 128THS)                 
&PREFIX.TYPE  DS      CL4               PAGE TYPE                               
&PREFIX.QPG   DS      F                 QUICK GET/LOC PAGE NUMBER               
&PREFIX.PPG   DS      F                 QUICK PUT PAGE NUMBER                   
&PREFIX.QOFF  DS      H                 QUICK GET/LOC PAGE OFFSET               
&PREFIX.POFF  DS      H                 QUICK PUT PAGE OFFSET                   
&PREFIX.RSVD  DS      XL4               NOT USED                                
         MEXIT                                                                  
.*                                                                              
.BOTH    ANOP                                                                   
         DS    0H                                                               
&NAME    DS    XL32                                                             
         ORG   &NAME                                                            
&PREFIX.GRP   DS      F                 RECORD GROUP (PAGE #)                   
&PREFIX.SET   DS      F                 RECORD SET NUMBER                       
&PREFIX.NLEN  DS      H                 RECORD NAME LENGTH                      
&PREFIX.FLGS  DS      X                 FLAGS,,, NOT USED                       
&PREFIX.SPLT  DS      X                 SPLIT VALUE (IN 128THS)                 
&PREFIX.TYPE  DS      CL4               PAGE TYPE                               
&PREFIX.QPG   DS      F                 QUICK GET/LOC PAGE NUMBER               
&PREFIX.PPG   DS      F                 QUICK PUT PAGE NUMBER                   
&PREFIX.QOFF  DS      H                 QUICK GET/LOC PAGE OFFSET               
&PREFIX.POFF  DS      H                 QUICK PUT PAGE OFFSET                   
&PREFIX.RSVD  DS      XL4               NOT USED                                
         MEXIT                                                                  
.*                                                                              
.NONE    ANOP                                                                   
         DS    0H                                                               
         DS    XL32                                                             
         MEND                                                                   
