         MACRO                                                          00050000
&NAME    AIA2ASCB &AIA=,&ASCB=                                          00100000
.********************************************************************** 00150000
.*                                                                    * 00200000
.* MACRO NAME = AIA2ASCB                                              * 00250000
.*                                                                    * 00300000
.* DESCRIPTIVE NAME = CONVERT AIA ADDRESS TO ASCB ADDRESS             * 00350000
.*                                                                    * 00400000
.* COPYRIGHT =                                                        * 00450000
.*   5685-001                                                         * 00500000
.*   THIS MODULE IS "RESTRICTED MATERIALS OF IBM"                     * 00550000
.*   (C) COPYRIGHT IBM CORP. 1988                                     * 00600000
.*   LICENSED MATERIALS - PROPERTY OF IBM                             * 00650000
.*                                                                    * 00700000
.* STATUS  = HBB3310                                                  * 00750000
.*                                                                    * 00800000
.* INPUT =  AIA - REGISTER CONTAINING AIA ADDRESS                     * 00850000
.*                                                                    * 00900000
.* OUTPUT = ASCB - REGISTER CONTAINING ASCB ADDRESS                   * 00950000
.*                                                                    * 01000000
.* NOTES = 1) NOTE THAT THE INPUT REGISTER CONTAINING THE AIA ADDRESS * 01050000
.*            WILL NOT CONTAIN THE AIA ADDRESS AFTER THE MACRO        * 01100000
.*            HAS BEEN INVOKED.                                       * 01150000
.*                                                                    * 01200000
.* CHANGE-ACTIVITY =                                                  * 01250000
.*                                                                    * 01300000
.* $L0 = OY16032,HBB3310,080188,PDBV: DATASPACES                      * 01350000
.*                                                                    * 01400000
.********************************************************************** 01450000
         AIF   ('&AIA' EQ '').E1                                        01500000
         AIF   ('&ASCB' EQ '').E2                                       01550000
*********************************************************************** 01600000
*                                                                     * 01650000
* *** CAUTION ***   THIS IS A PRODUCT SENSITIVE MACRO AND MAY         * 01700000
*                   NOT BE COMPATIBLE WITH FUTURE RELEASES OF MVS.    * 01750000
*                   THIS MACRO MAKES NO VALIDITY CHECKS.              * 01800000
*                   SERIALIZATION OF ALL DATA AREAS IS THE            * 01850000
*                   RESPONSIBILITY OF THE INVOKER.                    * 01900000
*                   IT IS THE RESPONSIBILITY OF THE INVOKER TO        * 01950000
*                   ENSURE THAT THE AIA IS ASSOCIATED WITH AN         * 02000000
*                   RSM REQUESTED PAGING OPERATION.                   * 02050000
*                                                                     * 02100000
*********************************************************************** 02150000
&NAME    LR    &ASCB,&AIA                                               02200000
         LA    &AIA,48                                                  02250000
         SR    &ASCB,&AIA                                               02300000
         L     &ASCB,0&ASCB                                             02350000
         L     &ASCB,24&ASCB                                            02400000
         MEXIT                                                          02450000
.E1      IHBERMAC 01,318                   AIA PARAMETER MISSING        02500000
         MEXIT                                                          02550000
.E2      IHBERMAC 01,318                   ASCB PARAMETER MISSING       02600000
         MEND                                                           02650000
