* %/*                                                                   00050000
         MACRO                                                          00100000
&NAME    AUSREQ                                                         00150000
.********************************************************************** 00200000
.*                                                                      00250000
.* MACRO NAME: AUSREQ                                                   00300000
.*                                                                      00350000
.* DESCRIPTIVE NAME: ASSIGN/UNASSIGN SERVICE REQUEST                    00400000
.*                                                                      00450000
.* COPYRIGHT = 5740-XC6 COPYRIGHT IBM CORP 1983, 1984,                  00500000
.*             LICENSED MATERIAL - PROGRAM, PROPERTY OF IBM             00550000
.*             REFER TO COPYRIGHT INSTRUCTION FORM NUMBER               00600000
.*             G120-2083                                                00650000
.*                                                                      00700000
.* STATUS = OS/VS2 JBB2125                                              00750000
.*                                                                      00800000
.* FUNCTION: CALL THE ASSIGN/UNASSIGN SERVICE ROUTINE (IEFAUSRV)        00850000
.*                                                                      00900000
.* NOTES:                                                               00950000
.*                                                                      01000000
.*   DEPENDENCIES -                                                     01050000
.*        TO USE THE AUSREQ MACRO, THE CALLER MUST                      01100000
.*             1. INCLUDE THE MAPPING MACROS FOR THE CVT                01150000
.*                AND IEFAUSCB.                                         01200000
.*             2. DECLARE THE 4 BYTE POINTER AUSCBPTR                   01250000
.*                                                                      01300000
.* INVOCATION:                                                          01350000
.*                                                                      01400000
.*   BAL  - AUSREQ                                                      01450000
.*                                                                      01500000
.* MODULE TYPE: MACRO                                                   01550000
.*                                                                      01600000
.* CHANGE ACTIVITY                                                      01650000
.*   $H0= 3480AU  JBB2125   830420  PDFB: ASSIGN/UNASSIGN SUPPORT       01700000
.*                                                                      01750000
.********************************************************************** 01800000
         L     15,16                    PICK UP CVT ADDRESS             01850000
         L     15,CVTAUSCB-CVT(,15)     PICK UP POINTER TO AUSCB        01900000
         L     15,AUSCSRVP-AUSCB(,15)   PICK UP POINTER TO AUS          01950000
         BALR  14,15                    CALL AUS ROUTINE                02000000
         MEND                                                           02050000
* */ AUSREQ: MACRO;                                                     02100000
*/*******************************************************************/  02150000
*/* MACRO NAME: AUSREQ                                              */  02200000
*/*                                                                 */  02250000
*/* DESCRIPTIVE NAME: ASSIGN/UNASSIGN SERVICE REQUEST               */  02300000
*/*                                                                 */  02350000
*/* COPYRIGHT = 5740-XC6 COPYRIGHT IBM CORP 1983, 1984,             */  02400000
*/*             LICENSED MATERIAL - PROGRAM, PROPERTY OF IBM        */  02450000
*/*             REFER TO COPYRIGHT INSTRUCTION FORM NUMBER          */  02500000
*/*             G120-2083                                           */  02550000
*/*                                                                 */  02600000
*/* STATUS = OS/VS2 JBB2125                                         */  02650000
*/*                                                                 */  02700000
*/* FUNCTION: CALL THE ASSIGN/UNASSIGN SERVICE ROUTINE (IEFAUSRV)   */  02750000
*/*                                                                 */  02800000
*/* NOTES:                                                          */  02850000
*/*                                                                 */  02900000
*/*   DEPENDENCIES -                                                */  02950000
*/*        TO USE THE AUSREQ MACRO, THE CALLER MUST                 */  03000000
*/*             1. INCLUDE THE MAPPING MACROS FOR THE CVT           */  03050000
*/*                AND IEFAUSCB.                                    */  03100000
*/*             2. DEFINE CVTPTR (EQUAL TO LOCATION 16)             */  03150000
*/*             3. DECLARE THE 4 BYTE POINTER AUSCBPTR              */  03200000
*/*                                                                 */  03250000
*/* INVOCATION:                                                     */  03300000
*/*                                                                 */  03350000
*/*   PL/S - ?AUSREQ                                                */  03400000
*/*                                                                 */  03450000
*/* MODULE TYPE: MACRO                                              */  03500000
*/*                                                                 */  03550000
*/* CHANGE ACTIVITY                                                 */  03600000
*/*   $H0= 6872AU  JBB2125   830420  PDFB: ASSIGN/UNASSIGN SUPPORT  */  03650000
*/*                                                                 */  03700000
*/*******************************************************************/  03750000
* DCL ICOMCOL FIXED;                                                    03800000
* ICOMCOL=MACRMAR-35;                                                   03850000
* ANS('DO;') COL(MACCOL);                                               03900000
* ANS(COMMENT('AUSREQ')) COL(ICOMCOL);                                  03950000
* ANS('RFY AUSCB BASED(CVTAUSCB);') COL(MACCOL+2);                      04000000
* ANS('CALL IEFAUSRV;') COL(MACCOL+2);                                  04050000
* ANS(COMMENT('CALL SERVICE ROUTINE')) COL(ICOMCOL);                    04100000
* ANS('END;') COL(MACCOL);                                              04150000
* ANS(COMMENT('AUSREQ')) COL(ICOMCOL);                                  04200000
* % END AUSREQ;                                                         04250000
