         MACRO                                                          00050000
&NAME    DELCPOOL &CPID=,&BRANCH=YES,&EXTENT=,&FREE=YES,&RELATED=       00100000
.********************************************************************   00102200
.*                                                                      00104500
.* COPYRIGHT        5685-001                                            00109000
.*                  THIS MODULE IS "RESTRICTED MATERIALS OF IBM"        00113500
.*                  (C) COPYRIGHT IBM CORP. 1982, 1988                  00118000
.*                  LICENSED MATERIALS - PROPERTY OF IBM                00122500
.*                                                                      00136000
.* STATUS           HBB3310                                             00140500
.*                                                                      00145000
.* CHANGE ACTIVITY  $L1=PROD310,HBB3310,860716,PDF5:                    00146000
.*                      Add a copyright notice to the prolog.    @L1A   00147000
.*                                                                      00148000
.*                  $L2=PROD310,HBB3310,870603,PDF5:                    00148300
.*                      Copyright changes                        @L2A   00148600
.********************************************************************   00149000
         LCLB  &FS,&PL,&AL,&LS     OPTION BITS                          00150000
         AIF   ('&BRANCH' NE 'YES').ERR1  BRANCH=YES MANDATORY          00200000
         AIF   ('&CPID' EQ '').ERR3       CPID PARAMETER REQUIRED       00250000
         AIF   ('&CPID'(1,1) NE '(').ERR2 CPID MUST BE REGISTER         00300000
.*       SYNTAX OK, CONTINUE WITH EXPANSION.                            00350000
         AIF   ('&FREE' EQ 'YES' OR '&FREE' EQ 'NO').FROK               00400000
         IHBERMAC  1015,&FREE,''FREE='',YES                             00450000
.FROK    ANOP                                                           00500000
&FS      SETB  ('&FREE' EQ 'NO')                                        00550000
&PL      SETB  ('&EXTENT' EQ '')                                        00600000
         AIF   (&PL).COMM                                               00610000
&LS      SETB  ('&EXTENT' EQ 'LAST')                                    00650000
&AL      SETB  ('&EXTENT' EQ 'ALL')                                     00700000
         AIF   (1 NE &AL+&LS).ERR6                                      00750000
.COMM    ANOP                                                           01150000
&NAME    STM   2,12,28(13)         SAVE CALLERS REGISTERS 2-12          01200000
         AIF   ('&CPID(1)' EQ '0').NZLD                                 01250000
         LR    0,&CPID(1)          LOAD R0 WITH CPID                    01300000
.NZLD    LA    1,B'0000&PL&AL&LS&FS'(0,0)  SET DELCPOOL OPTIONS YM02296 01350000
         L     3,16(0,0)           CVT ADDRESS FOR DELCPOOL     YM02296 01400000
         L     15,CVTDELCP-CVTMAP(0,3) LOAD DELCPOOL ENTRY ADDR         01450000
         BALR  14,15               GO TO DELCPOOL SERVICE               01500000
         LM    2,12,28(13)         RESTORE CALLERS REGISTERS            01550000
         MEXIT                                                          01600000
.ERR1    IHBERMAC  1006,''BRANCH=YES''                                  01650000
         MEXIT                                                          01700000
.ERR2    IHBERMAC  1001,CPID,&CPID                                      01750000
         MEXIT                                                          01800000
.ERR6    IHBERMAC  1001,EXTENT,&EXTENT                                  01850000
         MEXIT                                                          01900000
.ERR3    IHBERMAC  1006,CPID                                            01950000
         MEND                                                           02100000
