         MACRO                                                          00050000
&NAME    HOOK  &EID=,&TYPE=                                             00100000
         GBLB  &HOOKSW                                                  00150000
         GBLB  &TEMPSW                                                  00200000
.*A000000-999999                                                 Y01014 00250000
.*A021500,024440,C019500,C044500,C045000                         Y02014 00300000
.*A028100,044100-044900,041100,C028000,041000                    Y02014 00350000
.*C013500,024200,D015500-020500,024500,024400,024500-026000      Y02014 00400000
.* DETERMINE THE TYPE OF HOOK                                           00450000
         AIF   ('&EID' NE '').TYPECHK                                   00500000
         MNOTE 8,'AHL052  INSUFFICIENT KEYWORD PARAMETERS.'             00550000
         MEXIT                                                          00600000
.TYPECHK ANOP                                                           00650000
         AIF   ('&TYPE' EQ '').PMPMAP                                   00700000
         AIF   ('&TYPE' NE 'P' AND '&TYPE' NE 'BP' AND '&TYPE' NE      X00750000
               'BPN' AND '&TYPE' NE 'BPN2').TMP                @G64RP2H 00800000
.PMPMAP  ANOP                                                           00850000
.********************************************************************** 00900000
.*  THE FOLLOWING LOGIC DETERMINES WHICH MAPPING MACRO SHOULD BE CALLED 00950000
.*  WHEN A NEW MAPPING MACRO IS ADDED, THIS PORTION MUST BE UPDATED TO  01000000
.*  CALL THE NEW MACRO.                                                 01050000
.********************************************************************** 01100000
.IEACHEK ANOP                                                           01150000
         AIF   ('&EID'(1,3) EQ 'IEA').IEA                               01200000
         AGO   .IECCHEK                                                 01250000
.IEA     ANOP                                                           01300000
         IEAPMP                                                         01350000
         AGO   .BRCHK                                                   01400000
.IECCHEK ANOP                                                           01450000
         AIF   ('&EID'(1,3) EQ 'IEC').IEC                               01500000
         AGO   .IRACHEK                                                 01550000
.IEC     ANOP                                                           01600000
         IECPMP                                                         01650000
         AGO   .BRCHK                                                   01700000
.IRACHEK ANOP                                                           01750000
         AIF   ('&EID'(1,3) EQ 'IRA').IRA                               01800000
         AGO   .ISPCHEK                                                 01850000
.IRA     ANOP                                                           01900000
         IRAPMP                                                         01950000
         AGO   .BRCHK                                                   02000000
.ISPCHEK ANOP                                                           02050000
         AIF   ('&EID'(1,3) NE 'ISP').INVEID                            02100000
         ISPPMP                                                         02150000
         AGO   .BRCHK                                                   02200000
.********************************************************************** 02250000
.********************************************************************** 02300000
.TMP     ANOP                                                           02350000
         AIF   ('&TYPE' EQ 'T' OR '&TYPE' EQ 'BT' OR '&TYPE' EQ        X02400000
               'BTN').HKSWCHK                                           02450000
  MNOTE 8,'AHL053  INVALID TYPE= KEYWORD.'                              02500000
         MEXIT                                                          02550000
.HKSWCHK ANOP                                                           02600000
         AIF   (&HOOKSW).TEMPEID                                        02650000
         AIF   ('&NAME' EQ '').NONAME                                   02700000
&NAME    EQU   *                                                        02750000
.NONAME  ANOP                                                           02800000
         MEXIT                                                          02850000
.********************************************************************** 02900000
.*  THE FOLLOWING DETERMINES IF THE TEMPORARY MAPPING MACRO MUST        02950000
.*  BE CALLED.                                                          03000000
.********************************************************************** 03050000
.TEMPEID ANOP                                                           03100000
         AIF   ('&EID'(1,3) EQ 'TMP').T10                               03150000
         AGO   .INVEID                                                  03200000
.T10     ANOP                                                           03250000
         AIF   (&TEMPSW).BRCHK                                          03300000
         TMPEID                                                         03350000
&TEMPSW  SETB  1                                                        03400000
         AGO   .BRCHK                                                   03450000
.INVEID  ANOP                                                           03500000
         MNOTE 8,'AHL055  INVALID EID= KEYWORD.'                        03550000
         MEXIT                                                          03600000
.BRCHK   ANOP                                                           03650000
.* GENERATE BRANCH OR PERMANENT HOOK                                    03700000
         AIF   ('&TYPE' EQ 'BP' OR '&TYPE' EQ 'BT' OR '&TYPE' EQ 'BTN' X03750000
               OR '&TYPE' EQ 'BPN' OR '&TYPE' EQ 'BPN2').GENBR @G64RP2H 03800000
&NAME    DC    XL1'AF',AL3(&EID)   MC INSTRUCTION                       03850000
         MEXIT                                                          03900000
.GENBR   ANOP                                                           03950000
*                                                                       04000000
* SPECIAL BRANCH HOOK GENERATED BY THE HOOK MACRO                       04050000
*                                                                       04100000
         AIF   ('&TYPE' EQ 'BPN' OR '&TYPE' EQ 'BTN').CON1              04150000
         AIF   ('&TYPE' EQ 'BPN2').CONMCH                      @G64RP2H 04200000
&NAME    L     15,IEACON1          RESIDENT RTN E.P.S                   04250000
         AGO   .BRANCH                                                  04300000
.CON1    ANOP                                                           04350000
&NAME    L     15,IEACON2          RESIDENT RTN E.P.S                   04400000
         AGO   .BRANCH                                         @G64RP2H 04450000
.CONMCH  ANOP                                                  @G64RP2H 04500000
&NAME    L 15,16(0)                GET CVT PTR                 @G64RP2H 04550000
         L 15,CVTGTF(15)           GET MCHEAD PTR              @G64RP2H 04600000
         SLL 15,8                  SHIFT FLAGS OUT OF REG      @ZMC2128 04650000
         SRL 15,8                  RIGHT ALIGN ADDR OF MCHEAD  @ZMC2128 04700000
         L 15,MCHMCIHC(15)         GET MCIHC  PTR              @G64RP2H 04750000
.BRANCH  ANOP                                                           04800000
         BALR  14,15               BRANCH HOOK                          04850000
         DC    XL1'47',AL3(&EID)   NOP TO CARRY EID                     04900000
         MEND                                                           04950000
