         MACRO                                                          00050000
&NAME    IEAVBK &HOURS=,&MINUTES=,&FLAG=,&CTLFLGS=,&RPS=,&ACR=,        *00100000
               &WARN=,&STORAGE=                                         00150000
.*****START OF SPECIFICATIONS****************************************** 00200000
.*                                                                      05150000
.*01* MACRO NAME = IEAVBK                                               05200000
.*                                                                      06850000
.*01* COPYRIGHT =                                                       06900000
.*          5740-XC6                                                    06950000
.*          CONTAINS RESTRICTED MATERIALS OF IBM                        07000000
.*          (C) COPYRIGHT IBM CORP. 1977, 1986                          07050000
.*          LICENSED MATERIALS - PROPERTY OF IBM                        07100000
.*          REFER TO COPYRIGHT INSTRUCTIONS                             07150000
.*          FORM NUMBER G120-2083                                       07200000
.*                                                                      07250000
.*01* STATUS = OS/VS2 JBB2220                                           07300000
.*                                                                      07350000
.*01* PURPOSE =                                                         07400000
.*          IEAVBK FORMERLY CONTAINED THE SOURCE FOR NUCLEUS RESIDENT   07450000
.*          CONTROL BLOCKS AND THE MASTER AND WAIT ADDRESS SPACE. IT    07500000
.*          WAS ASSEMBLED DURING SYSGEN BY A PUNCH STATEMENT IN         07550000
.*          SGIEA200 TO CREATE CSECT IEAVBK00.  IEAVBK MACRO IS NOW A   07600000
.*          DUMMY, PRODUCING AN MNOTE RATHER THAN AN ASSEMBLY ERROR.    07650000
.*          THIS MNOTE STATES THAT THE SOURCE FOR PRODUCING THE SYSTEM  07700000
.*          DATA AREAS IS NOT AVAILABLE.                                07750000
.*                                                                      07800000
.**01* CHANGE ACTIVITY =                                                07850000
.*  $L0=IOGEN    JBB2220  840813  PD16H5:  IOGEN RESTRUCTURE            07900000
.*                                         REWRITE FOR IEAVBK BREAKUP   07950000
.*                                                                      08000000
.*01* COMPONENT = SC1S4 (SUPERVISOR SYSGEN)                             08050000
.*                                                                      08100000
.*01* DISTRIBUTION-LIBRARY = AMODGEN                                    08150000
.*                                                                      08200000
.*****END OF SPECIFICATIONS******************************************** 08250000
.*                                                                      08300000
         MNOTE 4,'SOURCE FOR SYSTEM DATA AREAS NO LONGER AVAILABLE'     08350000
         MEND                                                           46700000
