         MACRO                                                          00100000
&NAME    IECRES &FUNC,&IDTTR,&BCODE,&STM=,&LV=,&A=,&SP=,&KEY=,   Y02080*00150000
               &STMBASE=,                                          @13C*00175000
               &ID=,&PREFIX=,&EXTPR=,&MODID=,&MODNM=,&BRCODE=,   Y02080*00200000
               &EXITAD=,&REG0=,&REG1=,                           Y02082*00250000
               &DEB=,                                            Y02134*00300000
               &DCBCOPY=,                                        Y02082*00350000
               &BRANCH=,&EPA=,&REUSE=,                           Y02080*00400000
               &SVA=,&AREA=,&SERVREG=,&BLK=,                      @L10C*00450000
               &DSNAD=,&DISKAD=,&DSCBA=,&FULL=,&CVLST=,&AVT=,      @02C*00500000
               &DQLST=,&VCR=,&LOC=,&EXIT=,&SECID=,&UNCOND=,       @L13C*00533300
               &SMF42=,&TPSERV=                                   @L21C 00566600
.*                                                                 @L1A 00600000
.*    ADDED THE STMBASE PARAMETER SO THAT PLX PROGRAMS CAN SNEEK   @13A 00612500
.*    A BASE REGISTER ONTO THE LOAD INSTRUCTION.  PLX DOES EACH    @13A 00625000
.*    LABEL LIKE WTGPREFX AS "WTGPREFX EQU 16".  THE INSTRUCTION   @13A 00637500
.*    " L 15,WTGPRFEX " COMES OUT AS X'58F00010' -- NO BASE REG.   @13A 00650000
.*    TO FIX THIS, ADD "STMBASE=(,6)" TO THE IECRES INVOCATION     @13A 00662500
.*    SO THAT THE GENERATED INSTRUCTION IS " L 15,WTGPREFX(,6)".   @13A 00675000
.*                                                                 @13A 00687500
.********************************************************************** 00700000
.*                                                                      00750000
.*$MAC(IECRES) : O/C/E/DADSM COMMON SERVICE ROUTINE MACRO               00800000
.*                                                                      00850000
.*PROPRIETARY V3 STATEMENT                                              00862500
.*LICENSED MATERIALS - PROPERTY OF IBM                                  00875000
.*"RESTRICTED MATERIALS OF IBM"                                         00887500
.*5647-A01                                                              00902000
.*(C) COPYRIGHT 1982,2000  IBM CORP.                                    00916500
.*END PROPRIETARY V3 STATEMENT                                          00931200
.*                                                                      00950000
.*  STATUS = DFSMS/MVS RELEASE 1.6.0                              @L22C 01000000
.*                                                                      01050000
.* FUNCTION = THERE ARE MANY FUNCTIONS WHICH CAN BE SPECIFIED FOR  @L4C 01100000
.*            THE IECRES MACRO.  SOME OF THESE FUNCTIONS SET UP THE     01150000
.*            VARIOUS INTERFACES TO THE OPEN/CLOSE/EOV/DADSM SERVICE    01220000
.*            ROUTINE (IFG019RA):                                       01250000
.*                                                                      01350000
.*            IFG019RA+0  - ENTRY FOR WAIT FACILITY                     01400000
.*            IFG019RA+4  - ENTRY FOR SELECT-LOAD FACILITY              01450000
.*            IFG019RA+8  - ENTRY FOR DCB SYNCHRONIZATION FACILITY      01500000
.*            IFG019RA+12 - ENTRY FOR RJFCB                        @L7C 01530000
.*            IFG019RA+16 - ENTRY FOR GET WORK AREA FACILITY TO    @L2A 01560000
.*                          SUPPORT 24 BIT AND 31 BIT CALLERS      @L2A 01590000
.*            IFG019RA+20 - ENTRY FOR LOAD AND BRANCH FACILITY     @L4C 01620000
.*            IFG019RA+24 - ENTRY FOR LOAD AND RETURN FACILITY          01650000
.*            IFG019RA+28 - ENTRY FOR GET WORK AREA FACILITY (NOTE @L2C 01683300
.*                          THIS ENTRY IS NO LONGER GENERATED)     @L2A 01716600
.*            IFG019RA+32 - ENTRY FOR GET WTG/EOV WORK AREA FACILITY    01750000
.*            IFG019RA+36 - ENTRY FOR GET FIRST WORK AREA FACILITY      01800000
.*            IFG019RA+40 - ENTRY TO INITIALIZE PREFIX=FIRST WKAREA     01850000
.*            IFG019RA+44 - ENTRY TO INITIALIZE AND/OR COPY THE DCB     01900000
.*            IFG019RA+48 - ENTRY FOR FREE WORK AREA FACILITY      @L4C 01933300
.*                                                                 @L4D 01966600
.*            IFG019RA+52 - ENTRY FOR FREE FIRST OR WTG/EOV FACILITY    02000000
.*            IFG019RA+56 - ENTRY FOR UEXIT FACILITY                    02050000
.*            IFG019RA+60 - ENTRY FOR VALIDATE                     @L1A 02050500
.*            IFG019RA+64 - ENTRY FOR FILEACC                      @L1A 02051000
.*            IFG019RA+68 - ENTRY FOR XLATE                        @L1A 02051500
.*            IFG019RA+72 - ENTRY FOR DSN                          @L1A 02052000
.*            IFG019RA+76 - ENTRY FOR VOLACC AND VALSUP            @L1A 02052500
.*            IFG019RA+88 - ENTRY FOR CAF SMS SSI                  @LBA 02053000
.*            IFG019RA+92 - ENTRY FOR CAF READ TAPE VOL RECORD     @03C 02053500
.*            IFG019RA+96 - ENTRY FOR CAF UPDATE TAPE VOL RECORD   @03A 02054000
.*                                                                2@L4D 02054500
.*            IFG019RA+104 - ENTRY FOR DSCB ENQ/DEQ FACILITY       @L9A 02055000
.*            IFG019RA+108 - ENTRY FOR WJFCB MOVE MODE             @L7A 02055500
.*            IFG019RA+112 - ENTRY FOR WJFCB LOCATE MODE           @L7A 02056000
.*            IFG019RA+116 - ENTRY FOR ENQTIOT                     @L8A 02056500
.*            IFG019RA+120 - ENTRY FOR DEQTIOT                     @L8A 02057000
.*            IFG019RA+124 - ENTRY FOR GETTING ULTRA TEMP STORAGE  @L9A 02057500
.*            IFG019RA+128 - ENTRY FOR CVAF/CP-REBUILD            @L10A 02058000
.*            IFG019RA+132 - ENTRY FOR GET  SAM REQUEST            @01A 02058500
.*            IFG019RA+136 - ENTRY FOR FREE SAM REQUEST            @01A 02059000
.*                                                                      02060000
.*            THE OTHER FUNCTIONS (IECRES BRANCH, IECRES EXIT,     @L4C 02068000
.*            IECRES MODE31 AND IECRES MODE24)                     @L4C 02076000
.*            DO NOT SET UP AN INTERFACE TO                        @L4C 02084000
.*            IFG019RA, BUT MERELY GENERATE EXECUTABLE CODE.       @L4C 02092000
.*                                                                      02100000
.* NOTES = SEE BELOW                                                    02150000
.*                                                                      02200000
.*      DEPENDENCIES = THE USE OF IECRES XCTL,&IDTTR,&BCODE USES        02250000
.*                     THE BRT=NO EXPANSION OF THE XCTLTABL MACRO.      02300000
.*                                                                      02350000
.*                     SOME OF THE MACRO FUNCTIONS USE SYMBOLS WHICH    02400000
.*                     MUST BE EQUATED SOMEHOW IN THE CALLING MODULE.   02450000
.*                                                                      02500000
.*                     SYMBOL     FUNCTION USING THE SYMBOL             02550000
.*                                                                      02600000
.*                     EOVSIZE    IECRES GET,PREFIX=EOV                 02650000
.*                     RES        IECRES LOAD,BRANCH=QUEUED             02850000
.*                                IECRES SYNCH                          02900000
.*                                IECRES WAIT                           02950000
.*                                IECRES XCTL                           03000000
.*                     RESSYNCH   IECRES SYNCH                          03050000
.*                     RESXCTL    IECRES LOAD,BRANCH=QUEUED             03100000
.*                                IECRES XCTL                           03150000
.*                     RWTGC      IECRES LOAD,BRANCH=QUEUED             03200000
.*                                IECRES XCTL                           03250000
.*                                                                      03300000
.*                     ADDITIONALLY, ALMOST ALL OF THE EIGHTEEN    @L1A 03350000
.*                     FUNCTIONS REFERENCE FIELDS DEFINED IN THE        03400000
.*                     PREFIX, EXTENDED PREFIX, OR WTG TABLE PORTIONS   03450000
.*                     OF THE OPEN/CLOSE/EOV OR DADSM WORK AREAS.       03500000
.*                                                                @L12A 03506200
.*              IECRES IFG055ZZ AND IECRES CAFLCDB EXPAND TO GET  @L12A 03512400
.*               AUTO DATA AREAS FOR THE PLAS MODULES WHICH WILL  @L12A 03518600
.*               BE CALLED. IF THE SIZE OF THE AUTO DATA AREA IN  @L12A 03524800
.*               EITHER OF THESE MODULES INCREASES, THE SIZE OF   @L12A 03531000
.*               THE AUTO DATA AREA (WHICH IS HARD CODED) MUST BE @L12A 03537200
.*               INCREASED ACCORDINGLY.                           @L12A 03543400
.*                                                                      03550000
.*      RESTRICTIONS = ONLY THE OPEN, CLOSE, AND EOV ROUTINES           03600000
.*                     (INCLUDING RDJFCB) USE THE WAIT,                 03613600
.*                     SELECT-LOAD, SYNCH DCB, QMNGRIO, GET             03627200
.*                     WTG/EOV, INIT/COPY, VALIDATE, FILEACC,      @L1C 03640800
.*                     VOLACC, VALSUP AND FACILITIES.  ONLY UEXIT, @L1C 03654400
.*                     DADSM ROUTINES, TASK CLOSE, AND THE              03668000
.*                     RECOVERY ROUTINES USE THE GET FIRST              03681600
.*                     AND INITIALIZE PREFIX=FIRST                      03695200
.*                     FACILITIES.                                      03708800
.*                                                                      03722400
.*                     THE FOLLOWING FUNCTIONS CAN BE CALLED IN    @L7C 03736000
.*                     24-BIT OR 31-BIT MODE.  OTHERS CAN BE       @L7C 03749600
.*                     CALLED ONLY IN 24-BIT MODE.                 @L7C 03763200
.*                        EXIT.                                    @L7A 03776800
.*                        LOAD WITH BRANCH=QUEUED.                 @L4A 03790400
.*                        LOAD WITH BRANCH=DIRECT.                 @L4A 03804000
.*                        INIT/COPY FUNCTION.                      @L4A 03817600
.*                        GET AND FREE ROUTINES (PREFIX NOT        @L4A 03831200
.*                           EQUAL TO WTG OR EOV).                 @L4A 03844800
.*                        UEXIT.                                   @L7A 03858400
.*                        RJFCB,WJFCB                              @L8A 03872000
.*                        UGET.                                    @L9A 03885600
.*                                                                      03900000
.*      REGISTER CONVENTIONS = NOT APPLICABLE                           03950000
.*                                                                      04000000
.* PATCH LABEL = NOT APPLICABLE                                         04050000
.*                                                                      04100000
.* MODULE TYPE = MACRO                                                  04150000
.*                                                                      04200000
.*      PROCESSOR = ASSEMBLER H VERSION 2.                              04250000
.*                                                                      04300000
.*      MODULE SIZE = NOT APPLICABLE                                    04350000
.*                                                                      04400000
.*      ATTRIBUTES = NOT APPLICABLE                                     04450000
.*                                                                      04500000
.* ENTRY POINT = NOT APPLICABLE                                         04550000
.*                                                                      04600000
.*      PURPOSE = SEE FUNCTION                                          04650000
.*                                                                      04700000
.*      LINKAGE = LABEL IECRES &FUNC,&IDTTR,&BCODE,KEYWORDS=            04750000
.*                                                                      04800000
.*      INPUT =   OPTIONAL LABEL SPECIFIED AS AN ACCEPTABLE ASSEMBLER   05050000
.*                LABEL WHICH CAN BE USED BY THE CALLING CSECT.         05100000
.*                                                                      05150000
.*                                                                      05200000
.*                &FUNC IS THE FIRST POSITIONAL PARAMETER.  THE         05250000
.*                FUNCTIONS WHICH CAN BE SPECIFIED FOR IECRES ARE:      05300000
.*                                                                      05350000
.*                BRANCH   - GENERATES CODE TO BRANCH ON THE CONTENTS   05400000
.*                           OF A REGISTER                              05450000
.*                DSCBNQDQ - GENERATES CODE TO BRANCH TO DSCB      @L9A 05466600
.*                           ENQ/DEQ SUBROUTINE                    @L9A 05483200
.*                EXIT     - GENERATES CODE TO LOAD REGISTERS AND       05500000
.*                           RETURN                                     05550000
.*                FREE     - BUILDS THE INTERFACE FOR BOTH OF THE       05600000
.*                           FREE WORK AREA FACILITIES                  05610000
.*                GET      - BUILDS THE INTERFACE FOR ALL THREE GET     05620000
.*                           WORK AREA FACILITIES                       05630000
.*                INIT     - BUILDS THE INTERFACE FOR THE INITIALIZE-   05650000
.*                           DCB COPY FACILITY                          05700000
.*                LOAD     - BUILDS THE INTERFACE FOR ALL THREE LOAD    05750000
.*                           FACILITIES                                 05800000
.*                MODE31   - GENERATES CODE TO CHANGE TO 31-BIT ADDR    05825000
.*                           MODE                                 @L4A  05850000
.*                MODE24   - GENERATES CODE TO CHANGE TO 24-BIT ADDR    05875000
.*                           MODE                                 @L4A  05900000
.*                RJFCB    - READS A SWA CONTROL BLOCK.           @L7A  05925000
.*                SYNCHDCB - BUILDS THE INTERFACE FOR THE DCB SYNCHRO-  05950000
.*                           NIZATION FACILITY                          06000000
.*                UEXIT    - BUILDS THE INTERFACE FOR THE USER EXIT     06050000
.*                           FACILITY                                   06100000
.*                WAIT     - BUILDS THE INTERFACE FOR THE WAIT FACILITY 06150000
.*                WJFCB    - WRITES (UPDATES) A SWA CONTROL BLOCK. @L7C 06200000
.*                XCTL     - BUILDS THE INTERFACE FOR THE SELECT-LOAD   06300000
.*                           FACILITY                                   06350000
.*                VALIDATE - VALIDATES THE CONTENTS OF AN ANSI     @L1A 06351500
.*                           VERSION 3 LABEL.                      @L1A 06353000
.*                FILEACC  - PROCESSES THE FILE ACCESSIBILITY CODE @L1A 06354500
.*                           FROM AN ANSI VERSION 3 FILE 1 LABEL   @L1A 06356000
.*                           (HDR1, EOF1, EOV1).  SEE FILEACC      @L1A 06357500
.*                           FUNCTION OF IFG019RA FOR MORE DETAIL. @L1A 06359000
.*                XLATE    - TESTS EBCDIC DATA FOR VALID ANSI-78   @L1A 06360500
.*                           EQUIVALENTS                           @L1A 06362000
.*                DSN      - GET DATASET NAME FROM JFCB AND STRIP  @L1A 06363500
.*                           THE 'GNNNNVNN'.  ALSO COMPARES FILE   @L1A 06365000
.*                           NAME IN JFCBDSNM TO THAT ON TAPE      @L1A 06366500
.*                           (CKECK PARAMETER) AND MOVES THE FILE  @L1A 06368000
.*                           NAME FROM THE JFCBDSNM TO THE FILE    @L1A 06369500
.*                           LABEL (CREATE PARAMETER).             @L1A 06371000
.*                VOLACC   - PROCESSES THE VOLUME ACCESSIBILITY    @L1A 06372500
.*                           CODE FROM AN ANSI VERSION 3 VOLUME    @L1A 06374000
.*                VALSUP   - GIVE IMMEDIATE CONTROL TO THE VOLUME  @L1A 06375500
.*                           ACCESS EXIT TO DETERMINE IF LABEL     @L1A 06377000
.*                           VALIDATION SUPPRESSION SHOULD BE      @L1A 06378500
.*                           SET.                                  @L1A 06380000
.*                ENQTIOT    LINKS TO EXISTING CODE TO ENQUEUE     @L8A 06381500
.*                           SYSZTIOT                              @L8A 06383000
.*                DEQTIOT    LINKS TO CODE TO DEQUEUE SYSZTIOT.    @L8A 06384500
.*                           SUPPORTS EARLY DEQUEUE OF SYSZTIOT.   @L8A 06386000
.*            CVAFU/CVAFR,   INVOKE CVAF TO READ OR UPDATE A DSCB @L10A 06387500
.*                CPRBLD     REBUILD A CHANNEL PROGRAM            @L10A 06389000
.*                CPRBUL     REBUILD A USER LABEL CHANNEL PROGRAM @L10A 06390500
.*                CAFSMSVR   UPDATES A CAF VOLUME INVENTORY RECORD@L11A 06392000
.*                CAFLCDB    READ/UPDAT LCDB VCR CHECKPOINT STATUS@L11A 06393500
.*                IFG055ZZ   INVOKE MODULE IFG055ZZ TO EXTEND A   @L12A 06395000
.*                            STRIPED DATA SET.                         06396500
.*                                                                      06400000
.*                                                                      06450000
.*                &IDTTR, THE SECOND POSITIONAL PARAMETER, IS OPTIONAL. 06500000
.*                IT CAN BE USED WITH FOUR OF THE IECRES FUNCTIONS.     06550000
.*                                                                      06600000
.*                FOR IECRES GET/FREE, IF &IDTTR IS SPECIFIED (AS THE   06650000
.*                CHARACTERS 'WLH' WHICH STAND FOR 'WITH LOCK HELD'),   06700000
.*                THEN IFG019RA DOES NOT ACQUIRE THE LOCAL LOCK.        06750000
.*                                                                      06800000
.*                FOR IECRES XCTL, IF &IDTTR IS SPECIFIED, IT MUST      07210000
.*                POINT TO THE ID AND TTR OF A MODULE TO WHICH CONTROL  07220000
.*                SHOULD BE GIVEN BY IFG019RA.                          07230000
.*                                                                      07250000
.*                                                                      07300000
.*                &BCODE, THE THIRD POSITIONAL PARAMETER IS OPTIONAL.   07350000
.*                IT CAN BE USED WITH ONE IECRES FUNCTION.         @L7C 07400000
.*                                                                      07600000
.*                FOR IECRES XCTL, IF &BCODE IS SPECIFIED, IT IS THE    07650000
.*                NAME OF A REGISTER WHICH CONTAINS THE BRANCH TABLE    07700000
.*                OFFSET.                                               07750000
.*                                                                      07800000
.*                                                                      07850000
.*                THE OPTIONAL KEYWORD PARAMETERS ARE:                  07900000
.*                                                                      07950000
.*                A=                                                    08000000
.*                AREA=                                                 08025000
.*                BRANCH=                                               08050000
.*                BRCODE=                                               08100000
.*                DCBCOPY=                                              08150000
.*                DEB=                                                  08200000
.*                EPA=                                                  08250000
.*                EXITAD=                                               08300000
.*                EXTPR=                                                08350000
.*                ID=                                                   08400000
.*                KEY=                                                  08450000
.*                LOADSERV=                                             08475000
.*                LV=                                                   08500000
.*                MODID=                                                08550000
.*                MODNM=                                                08600000
.*                PREFIX=                                               08650000
.*                REG0=                                                 08700000
.*                REG1=                                                 08750000
.*                REUSE=                                                08800000
.*                SP=                                                   08850000
.*                STM=                                                  08900000
.*                SVA=                                                  08950000
.*                DQLST=                                                09000000
.*                VCR=                                                  09050000
.*                                                                      10250000
.*                                                                      10300000
.*      OUTPUT = INTERFACE TO IFG019RA                                  10350000
.*                                                                      10400000
.* EXIT-NORMAL = MEXIT OR MEND STATEMENT                                10950000
.*                                                                      11000000
.* EXIT-ERROR = ERROR MESSAGES:                                         11050000
.*                                                                      11100000
.*      MNOTE 8,***** INVALID FUNCTION - &FUNC                          11150000
.*      MNOTE 4,WAIT CAN HAVE NO PARAMETERS                             11200000
.*      MNOTE 4,XCTL CAN HAVE ONLY 2 PARAMETERS                         11250000
.*      MNOTE 4,SYNCHDCB CAN HAVE NO PARAMETERS                         11300000
.*      MNOTE 4,LV ONLY ON FREE WITH PREFIX=NO OR PREFIX=WA        @01A 11350000
.*      MNOTE 4,SP ONLY ON FREE WITH PREFIX=NO OR PREFIX=WA        @01A 11400000
.*      MNOTE 4,KEY ONLY ON FREE WITH PREFIX=NO OR PREFIX=WA       @01A 11450000
.*      MNOTE 4,ID= INVALID FOR FREE                                    11500000
.* MNOTE 8,'INVALID INPUT TO &SYSLIST(1):TOO MANY PARAMETERS SPECD'@L1A 11512500
.* MNOTE 8,'INVALID INPUT TO &SYSLIST(1): BAD PARAMETER SPECIFIED' @L1A 11525000
.* MNOTE 8,'INVALID INPUT TO &SYSLIST(1): MUTUALLY EXCLUSIVE PARMS'@L1A 11537500
.*      MNOTE 8,CODE PREFIX OR EXTPR WITH GET OR FREE                   11550000
.*      MNOTE 8,STM ON LAST FREE INVALID                                11600000
.*      MNOTE 8,STM MUST HAVE 3 PARAMETERS                              11650000
.*      MNOTE 8,STM ERROR - GET RETURNS ADDR OF AREA IN R1              11700000
.*      MNOTE 8,A= ADDR OF DCB PARAM LIST                               11750000
.*      MNOTE 8,A= ADDR TO FREE OR GET PREFIX ADDR MISSING              11800000
.*      MNOTE 8,LV= LENGTH MISSING                                      11850000
.*      MNOTE 8,PREFIX=&PREFIX INCOMPATIBLE WITH GET REQUEST            11900000
.*      MNOTE 8,PREFIX OR EXTPR PARAMETER REQUIRED FOR LOAD UNLESS      11950000
.*            BRANCH=QUEUED                                             12000000
.*      MNOTE 8,BRANCH PARAMETER INVALID                                12100000
.*      MNOTE 8,BRANCH PARAMETER REQUIRED FOR LOAD                      12150000
.*      MNOTE 8,DEB= OR DCBCOPY= MUST BE CODED                          12200000
.*      MNOTE 8,INITIAL CALL ALWAYS TOWKAR                              12250000
.*      MNOTE 12,***  IHB002 INVALID DEB OPERAND SPECIFIED-&DEB         12300000
.*      MNOTE 12,***  IHB002 INVALID DCBCOPY OPERAND SPECIFIED-&DCBCOPY 12350000
.*                                                                      12400000
.* EXTERNAL REFERENCES = NONE                                           12550000
.*                                                                      12600000
.*      ROUTINES = NONE                                                 12800000
.*                                                                      12850000
.*      DATA AREAS = NONE                                               12900000
.*                                                                      12950000
.*      CONTROL BLOCKS = CVT                                            13150000
.*                                                                      13200000
.* TABLES = EOV WORK AREA                                               13400000
.*          OPEN/CLOSE WORK AREA                                        13450000
.*          OPEN/CLOSE WTG TABLE                                        13500000
.*          VARIOUS DADSM WORK AREAS                                    13550000
.*                                                                      13600000
.* MACROS = IHBERMAC                                                    13800000
.*          MODESET                                                     13850000
.*          RETURN                                                      13900000
.*                                                                      13950000
.* CHANGE ACTIVITY -                                                    13959000
.*                                                                      13968000
.*     CHANGES FOR MVS/XA DFP 1.1                                       13977000
.*                                                                      13986000
.*$L1=ANSI,JDP1111,,STLLRU: ANSI-78 TAPE LABEL SUPPORT             @L1A 13995000
.*                                                                      14004000
.*     CHANGES FOR MVS/XA DFP 2.1.0                                     14013000
.*                                                                      14022000
.*$L2=VSCR,HDP2102,,STLJAK: CHECKPOINT/RESTART VSCR                @L2A 14031000
.*$L3=HDQ2210,,STLSS:NEW COPYRIGHT STATEMENTS                      @L3A 14040000
.*$L4=ACB31BIT,HDP2230,STLSS:  O/C/E SUPPORT OF 31-BIT VSAM        @L4A 14049000
.*$L7=SWA,HDP2230,850507,STLWER: SWA ABOVE THE LINE                @L7A 14058000
.*$L8=OZ85432,HDP2230,850924,STLCMS: SHORTEN TIOT ENQ              @L8A 14067000
.*$L9=OY07766,HDP2230,871116,STLCMS: PDS INTEGRITY                 @L9A 14076000
.*$L10=NSYNC,JDP3311,,880916,STLPD: INVOKE CVAF/REBUILD CHANL PROG@L10A 14085000
.*$01=OY32791,HDP3330,910427,SJPLJAA: ADD WA  KEYWORD TO PREFIX    @01A 14094000
.*$02=OY45560,HDP3330,910716,SJPLMV:  DSCBNQDQ DSNAME ENHANCEMENT  @02A 14103000
.*$L11=TAPELIB,HDP4410,901214,SJPLMV: FLAGSTAFF SUPPORT           @L11A 14112000
.*$P1=KMM2500,JDZ1110,920612,SJPLMV: ERROR W/REG RESTORING         @P1A 14121000
.*$L12=STRIPES,JDZ1110,920618,SJPLREB: STRIPED DATA SET SUPPORT   @L12A 14130000
.*$03=OY58424,JDZ1110,920716,SJPLMV:  ATL BIG3  SUPPORT            @03A 14139000
.*$04=OY60008,JDZ1110,921030,SJPLJAL: RMMEXIT SUPPORT              @04A 14144500
.*$05=OY60414,JDZ1110,921228,SJPLMV:  2ND DEB EXT NOT ABOVE 16 LINE@05A 14144600
.*$L13,K131547,HDZ11C0,931230,SJPLJAL: STORAGE SEGMENT SUPPORT    @L13A 14145900
.*$L14=K130398,HDZ11C0,941230,SJPLJAL: RMM EXIT CHANGES           @L14A 14147200
.*$L15=K130891,HDZ11C0,950224,SJPLJAL: EXCP DCB XTIOT SUPPORT     @L15A 14148600
.*$16=OW20622,HDZ11C0,960530,SJPLJAL: DEB2X OBTAINED BELOW LINE    @16A 14149300
.*$L16=SMFT422,HDZ11D0,9601030,SJPLJAL: SMF42 SUBTYP9 SUPPORT     @L16A 14149600
.*$L17=SERVICE,HDZ11D0,960923,SJPLGEC: SSSA SIZE CHANGE           @L17A 14149800
.*$L18=RAVSCR,HDZ11D0,9601030,SJPLJAL: EXCP DCB XTIOT RTN IN 19RA @L18A 14162300
.*                                MOVED ABOVE LINE FOR VSCR       @L18A 14174800
.*$L19=ANSIV4,HDZ11E0,971231,SJPLJAL: ANSI V4 SUPPORT             @L19A 14181000
.*$L20=ANSIV4,HDZ11E0,971231,SJPLJAL: ANSI V4 CCSID SUPPORT       @L20A 14184100
.*$L21=OW38717,HDZ11E0,990630,SJPLJAL: BLYTHE2 SUPPORT            @L21A 14185700
.*$L22=NEWGET,HDZ11F0,990630,SJPLJAL: SUPPORT LOC=(BELOW,ANY)     @L22A 14186500
.*                                                                      14187300
.********************************************************************** 14200000
.*                                                                      14250000
         LCLA  &IECPRFX,&CODE                                    Y02080 14300000
         LCLC  &PREFX                                            Y02080 14350000
         LCLC  &SR          VALUE FOR SERVREG                      @L7A 14357100
.*                                                                 @L7A 14364200
&SR      SETC  'RES'        SET DEFAULT FOR NAME OF REGISTER 5     @L7A 14371300
         AIF   ('&SERVREG' EQ '').NOSERV                           @L7A 14378400
&SR      SETC  '&SERVREG'   GET NAME OF REGISTER 5                 @L7A 14385500
.NOSERV  ANOP                                                      @L7A 14392600
.*                                                                      14400000
         AIF   ('&FUNC' EQ 'WAIT').WAIT  WAITS ON DXECB IN WORK AREA    14450000
         AIF   ('&FUNC' EQ 'XCTL').XCTL  XCTL TO NEXT MODULE            14500000
         AIF   ('&FUNC' EQ 'SYNCHDCB').SYNCHDC ALL DCB'S TO SAME POINT  14550000