*         %GOTO SARBPLS1; /*                                            00050000
          MACRO                                                         00100000
&NAME     IEFSSARB                                                      00150000
**/                                                                     00200000
*%SARBPLS1:  ;                                                          00250000
*/***********************************************************@G29AN2F*/ 00300000
*/*                                                          @G29AN2F*/ 00350000
*/* NAME - IEFSSARB                                          @G29AN2F*/ 00400000
*/*                                                          @G29AN2F*/ 00450000
*/* DESCRIPTIVE NAME - SUBSYSTEM ALLOCATION REQUEST BLOCK    @G29AN2F*/ 00500000
*/*                                                          @G29AN2F*/ 00550000
*/* STATUS - VS2 SU 16 - IN THIS MODULE, SU16 SUPPORTS       @G16APPK*/ 00600000
*/*          VPSS SUPPORT ( SU 29 - @G29AN2F).               @G16APPK*/ 00650000
*/*        - SU 4,10,16 MERGE                                @ZA28413*/ 00700000
*/*                                                          @G29AN2F*/ 00750000
*/*       PTF FOR APAR OY37233                                   @T1A*/ 00766600
*/*                                                                  */ 00783200
*/* FUNCTION -                                               @G29AN2F*/ 00800000
*/*   THE SUBSYSTEM ALLOCATION REQUEST BLOCK(SSARB) IS       @G29AN2F*/ 00850000
*/*   A BLOCK REPRESENTING AN ALLOCATION REQUEST TO A        @G29AN2F*/ 00900000
*/*   DESIGNATED SUBSYSTEM.  AN SSARB MAY BE CHAINED TO      @G29AN2F*/ 00950000
*/*   OTHER SSARB'S.  THE FIRST SSARB MUST BE POINTED        @G29AN2F*/ 01000000
*/*   TO BY THE SSAG EXTENSION OF THE SSOB.  THE SSOB        @G29AN2F*/ 01050000
*/*   IS MAPPED BY MACRO IEFJSSOB.                           @G29AN2F*/ 01100000
*/*                                                          @G29AN2F*/ 01150000
*/* METHOD OF ACCESS -                                       @G29AN2F*/ 01200000
*/*   PL/S - DCL SSARBPTR PTR(31)                            @G29AN2F*/ 01250000
*/*   BAL  - USING ON SSARB                                  @G29AN2F*/ 01300000
*/*                                                          @G29AN2F*/ 01350000
*/* CHANGE ACTIVITY - T1                                         @T1A*/ 01362500
*/* $T1=OY37233         901029 PDDU: Assembler code error        @T1A*/ 01375000
*/*                                                                  */ 01387500
*/***********************************************************@G29AN2F*/ 01400000
*/* IEFSSARB - C - The Assembler reserved field defined right    @T1A*/ 01404100
*/*                before SSAGNRBP should not be commented out.  @T1A*/ 01408200
*/*                '*' is removed from that line.                @T1A*/ 01412300
*/*                When the line is commented out, different     @T1A*/ 01416400
*/*                storage mappings will result for ALIGN        @T1A*/ 01420500
*/*                vs. NOALIGN assemble option.                  @T1A*/ 01424600
*/*                With ALIGN option, SSAGNRBP will start on     @T1A*/ 01428700
*/*                a full word boundary.  With NOALIGN option,   @T1A*/ 01432800
*/*                SSAGNRBP will not start on a full word        @T1A*/ 01436900
*/*                boundary and thus the PL/AS and Assembler will@T1A*/ 01441000
*/*                result in different storage mappings.         @T1A*/ 01445100
*/* IEFSSARB - C - MERGED BACK TO REL 3.7                   @ZA28413*/  01450000
*         %GOTO SSARBPLS2; /*                                           01500000
SSARB    DSECT                                                          01550000
SSAGARBK DS    0CL60          SSAG REQUEST BLOCK MAPPING       @G29AN2F 01600000
SSAGRBLN DS    H              REQUEST BLOCK LENGTH             @G29AN2F 01650000
SSAGRBFL DS    H              RESERVED FLAGS                   @G29AN2F 01700000
SSAGRBEC DS    H              DD RELATED ERROR CODE            @G29AN2F 01750000
SSAGRBIC DS    H              DD RELATED INFO CODE-DEFINED     @G29AN2F 01800000
*                             BY THE SUBSYSTEM                 @G29AN2F 01850000
SSAGDMLN DS    H              MAX LENGTH OF DD LEVEL MSG       @G29AN2F 01900000
         DS    H              RESERVED                             @T1C 01950000
SSAGNRBP DS    A              ADDRESS OF NEXT RB OR 0          @G29AN2F 02000000
SSAGDDNM DS    A              ADDRESS OF DDNAME                @G29AN2F 02050000
SSAGDISP DS    A              ADDRESS OF DATA SET DISP         @G29AN2F 02100000
SSAGDUMY DS    A              ADDRESS OF DUMMY/SYSIN FLAGS     @G29AN2F 02150000
SSAGSOUT DS    A              ADDRESS OF SYSOUT FLAGS          @G29AN2F 02200000
SSAGUNIT DS    A              ADDRESS OF UNIT TYPE             @G29AN2F 02250000
SSAGADSP DS    A              ADDRESS OF ALTERNATE DISP        @G29AN2F 02300000
SSAGSSNM DS    A              ADDRESS OF SUBSYSTEM NAME        @G29AN2F 02350000
SSAGJFCB DS    A              ADDRESS OF JFCB                  @G29AN2F 02400000
SSAGSSWA DS    A              ADDRESS OF SSWA                  @G29AN2F 02450000
SSAGSSCM DS    A              ADDRESS OF SUBSYSTEM INFO        @G29AN2F 02500000
SSAGDMGP DS    A              ADDRESS OF DD LEVEL MSG BLOCK    @G29AN2F 02550000
*                                                              @G29AN2F 02600000
SSAGDMBK DSECT                DD LEVEL MESSAGE BLOCK POINTED   @G29AN2F 02650000
*                             TO BY SSAGDMGP                   @G29AN2F 02700000
SSAGDMGL DS    H              LENGTH OF MESSAGE RETURNED       @G29AN2F 02750000
*                             BY THE SUBSYSTEM                 @G29AN2F 02800000
SSAGDMSG DS    0C             DD LEVEL MESSAGE TEXT            @G29AN2F 02850000
*                                                              @G29AN2F 02900000
SSAGGMBK DSECT                GROUP LEVEL MESSAGE BLOCK        @G29AN2F 02950000
*                             POINTED TO BY SSAGGMGP IN SSOBAG @G29AN2F 03000000
SSAGGMGL DS    H              LENGTH OF MESSAGE RETURNED       @G29AN2F 03050000
*                             BY THE SUBSYSTEM                 @G29AN2F 03100000
SSAGGMSG DS    0C             GROUP LEVEL MESSAGE TEXT         @G29AN2F 03150000
         MEND  */                                                       03200000
*%SSARBPLS2: ;                                                          03250000
*/*                                                          @G29AN2F*/ 03300000
*DCL                          /*                             @G29AN2F*/ 03350000
* 1    SSAGARBK  BASED(SSARBPTR), /* SSAG REQUEST BLOCK                 03400000
*                                    MAPPING                 @G29AN2F*/ 03450000
*   2  SSAGRBLN  FIXED(15),   /* REQUEST BLOCK LENGTH        @G29AN2F*/ 03500000
*   2  SSAGRBFL  BIT(16),     /* RESERVED FLAGS              @G29AN2F*/ 03550000
*   2  SSAGRBEC  FIXED(15),   /* DD RELATED ERROR CODE       @G29AN2F*/ 03600000
*   2  SSAGRBIC  FIXED(15),   /* DD RELATED INFO CODE-DEFINED           03650000
*                                BY SUBSYSTEM                @G29AN2F*/ 03700000
*   2  SSAGDMLN  FIXED(15),   /* MAX LENGTH OF DD LEVEL MSG  @G29AN2F*/ 03750000
*   2  *         FIXED(15),   /* RESERVED                    @G29AN2F*/ 03800000
*   2  SSAGNRBP  PTR(31),     /* POINTER TO NEXT RB OR 0     @G29AN2F*/ 03850000
*   2  SSAGDDNM  PTR(31),     /* POINTER TO DDNAME           @G29AN2F*/ 03900000
*   2  SSAGDISP  PTR(31),     /* POINTER TO DATA SET DISP    @G29AN2F*/ 03950000
*   2  SSAGDUMY  PTR(31),     /* POINTER TO DUMMY/SYSIN                 04000000
*                                FLAGS                       @G29AN2F*/ 04050000
*   2  SSAGSOUT  PTR(31),     /* POINTER TO SYSOUT FLAGS     @G29AN2F*/ 04100000
*   2  SSAGUNIT  PTR(31),     /* POINTER TO UNIT TYPE        @G29AN2F*/ 04150000
*   2  SSAGADSP  PTR(31),     /* POINTER TO ALTERNATE DISP   @G29AN2F*/ 04200000
*   2  SSAGSSNM  PTR(31),     /* POINTER TO SUBSYSTEM NAME   @G29AN2F*/ 04250000
*   2  SSAGJFCB  PTR(31),     /* POINTER TO JFCB             @G29AN2F*/ 04300000
*   2  SSAGSSWA  PTR(31),     /* POINTER TO SSWA             @G29AN2F*/ 04350000
*   2  SSAGSSCM  PTR(31),     /* POINTER TO INFO             @G29AN2F*/ 04400000
*   2  SSAGDMGP  PTR(31);     /* POINTER TO DD LEVEL MESSAGE            04450000
*                                BLOCK                       @G29AN2F*/ 04500000
*DCL                          /*                             @G29AN2F*/ 04550000
* 1    SSAGDMBK  BASED(SSAGDMGP), /* DD LEVEL MESSAGE BLOCK  @G29AN2F*/ 04600000
*   2  SSAGDMGL  FIXED(15),   /* LENGTH OF MESSAGE RETURNED             04650000
*                                BY SUBSYSTEM                @G29AN2F*/ 04700000
*   2  SSAGDMSG  CHAR(*);     /* DD LEVEL MESSAGE TEXT       @G29AN2F*/ 04750000
*DCL                          /*                             @G29AN2F*/ 04800000
* 1    SSAGGMBK  BASED(SSAGGMGP), /* GROUP LEVEL MESSAGE BLK @G29AN2F*/ 04850000
*   2  SSAGGMGL  FIXED(15),   /* LENGTH OF MESSAGE RETURNED BY          04900000
*                                SUBSYSTEM                   @G29AN2F*/ 04950000
*   2  SSAGGMSG  CHAR(*);     /* GROUP LEVEL MESSAGE TEXT    @G29AN2F*/ 05000000
