*********************************************************************** 00003500
*                                                                     * 00014000
*PROPRIETARY V3 STATEMENT                                             * 00017500
*LICENSED MATERIALS - PROPERTY OF IBM                                 * 00021000
*"RESTRICTED MATERIALS OF IBM"                                        * 00024500
*5695-DF1                                                             * 00028000
*(C) COPYRIGHT 1992  IBM CORP.                                        * 00031500
*END PROPRIETARY V3 STATEMENT                                         * 00036700
*                                                                     * 00042000
*********************************************************************** 00045500
         MACRO                                                          00050000
&NAME    IGGBISAV                                                       00100000
&NAME    DSECT                                                          00110000
*    02/20/73          LEVEL=00                                         00150000
**********************************************************************  00200000
*    SAVE AREA FOR BISAM ASYNCHRONOUS AND PRIVILEGED ROUTINES.       *  00250000
**********************************************************************  00300000
IGGRETRN DS    A                        RETURN ADDRESS                  00350000
IGGPDEB  DS    A                        VALIDATED DEB ADDRESS           00400000
IGGUKEY  DS    X                        USER STORAGE PROTECT KEY        00450000
IGGRESRV DS    XL3                      RESERVED                        00500000
IGGREGS  DS    16F                      PROTECTED REGISTER SAVE AREA    00550000
IGGSIZE  EQU   *-IGGRETRN               SIZE OF PROTECTED SAVE AREA     00600000
         MEND                                                           00650000
