*********************************************************************** 00050000
*                                                                     * 00200000
*PROPRIETARY V3 STATEMENT                                             * 00250000
*LICENSED MATERIALS - PROPERTY OF IBM                                 * 00300000
*"RESTRICTED MATERIALS OF IBM"                                        * 00350000
*5695-DF1                                                             * 00400000
*(C) COPYRIGHT 1992  IBM CORP.                                        * 00450000
*END PROPRIETARY V3 STATEMENT                                         * 00500000
*                                                                     * 00600000
*********************************************************************** 00650000
         MACRO                                                          07000000
&NAME    IGGCP47 &OPTCD=                                                14000000
         GBLB    &CPOPS                                                 14010000
.*          RELEASE 23 DELETIONS/CHANGES                                14011000
.*          RELEASE 22 DELETIONS/CHANGES                                14012000
.*          RELEASE 21 DELETIONS/CHANGES                                14013000
         AIF     (&CPOPS).NOCPOPS                                       14020000
&CPOPS   SETB    1                                                      14030000
         IGGCPOPS                                                       14040000
.NOCPOPS ANOP                                                           14050000
&NAME    DSECT                                                          21000000
CP4      DS    0D                                                       28000000
         IGGCP4                                                         35000000
CP5      DS    0D                                                       42000000
         IGGCP5  OPTCD=&OPTCD                                           49000000
CP6      DS    0D                                                       56000000
         IGGCP6  OPTCD=&OPTCD                                           63000000
CP7      DS    0D                                                       70000000
         IGGCP7  OPTCD=&OPTCD                                           77000000
         MEND                                                           84000000
