*********************************************************************** 00050000
*                                                                     * 00200000
*PROPRIETARY V3 STATEMENT                                             * 00250000
*LICENSED MATERIALS - PROPERTY OF IBM                                 * 00300000
*"RESTRICTED MATERIALS OF IBM"                                        * 00350000
*5695-DF1                                                             * 00400000
*(C) COPYRIGHT 1992  IBM CORP.                                        * 00450000
*END PROPRIETARY V3 STATEMENT                                         * 00500000
*                                                                     * 00600000
*********************************************************************** 00650000
         MACRO                                                          01000000
&NAME    IGGIOBD                                                        02000000
.*          RELEASE 22 DELETIONS/CHANGES                                02001000
.*          RELEASE 21 DELETIONS/CHANGES                                02002000
.*          RELEASE 20 DELETIONS/CHANGES                                02010000
*    02/06/73          LEVEL=01                                         02060000
&NAME    DSECT                                                          03000000
         DS    0F             STANDARD IOB                              04000000
IOBFLAG1 DS    CL1                                                      05000000
IOBFLAG2 DS    CL1                                                      06000000
IOBSENSE DS    0XL2                                                     07000000
IOBSENS0 DS    XL1                      SENSE BYTE 0                    07050000
IOBSENS1 DS    XL1                      SENSE BYTE 1                    07100000
IOBECBAD DS    A                                                        08000000
IOBCSW   DS    CL8                                                      09000000
IOBSIOCC DS    CL1                                                      10000000
IOBSTART DS    AL3                                                      11000000
IOBWGHT  DS    CL1                                                      12000000
IOBDCBAD  DS    AL3                                                     13000000
IOBRESTA DS    A                                                        14000000
IOBBCTIN DS    CL2                                                      15000000
IOBERRCT DS    CL2                                                      16000000
IOBDADAD DS    CL8                                                      17000000
*                             BISAM IOB EXTENSION                       18000000
IOBCCWAD DS    A                        ADDRESS FIRST CHAN PROGRAM      19000000
IOBINDCT DS    CL1                      INDICATORS B0 REMOVE CP FROM Q  20000000
*                                                  B1 UNSCHEDULED BIT   21000000
*                                                  B2 OVFLO RCD IN W    22000000
IOBUNSQR DS    CL1                      UNSCHED REASON B0 CP1 OR 2 BUSY 23000000
*                                                        B1 NO CP4-5-6  24000000
*                                                      B3 WKN IN EFFECT 25000000
IOBAPP   DS    CL1                      APPENDAGE CODE 0 READ CP4-5     26000000
*                                                      1 WRITE CP4-5    27000000
*                                                      2 CP7            28000000
*                                                      3 CP1 OR CP2     29000000
*                                                      5 CP6            30000000
*                                                      6 WRITE CHECK    31000000
*                                                 WKN  7 CP1 OR CP2     32000000
*                                                      8 CP8            33000000
*                                                      9 CP10A          34000000
*                                                     10 CP10B          35000000
*                                                     11 CP10B          36000000
*                                                     12 CP14           37000000
*                                                     13 CP14           38000000
*                                                     14 CP15           39000000
*                                                     15 CP16           40000000
*                                                     16 CP16           41000000
*                                                     17 CP17           42000000
*                                                     18 CP17           43000000
*                                                     19 CP17           44000000
*                                                     20 CP9/12/11/13A  45000000
*                                                     21 CP9/12/11/13B  46000000
*                                                     22 CP9C/CP/23W    47000000
*                                                     23 CP10A          48000000
*                                                     24 X/CP12C/X/13C  49000000
IOBASYN  DS    CL1                      ASYNCHRONOUS   0 END CP456 OK   50000000
*                                                      1 DO AN EXCP     51000000
*                                                      2 END CP7 OK     52000000
*                                                      3 END CP1-2 OK   53000000
*                                                      4 END CP456 ERR  54000000
*                                                      6 END CP7 ERR    55000000
*                                                      7 END CP1-2 ERR  56000000
*                                                 WKN  8 COMPLETION     57000000
*                                                      9 CP14, SETUP 1  58000000
*                                                     10 CP14, SETUP 2  59000000
*                                                     11 CP14, SETUP 3  60000000
*                                                     12 CP14, SETUP 4  61000000
*                                                     13 CP14, SETUP 5  62000000
*                                                     14 CP14, SETUP 6  63000000
IOBCOUNT DS    0CL1                     WRITE CHECK ERROR COUNTER       64000000
IOBFCHAD DS    A                        FORWARD CHAIN ADDRESS           65000000
IOBBCHAD DS    A                        BACKWARD CHAIN ADDRESS          66000000
IOBCCW1  DS    D                        SETSECTOR FOR RPS               67000000
IOBCCW2  DS    D                        TIC TO CHANNEL PGM              68000000
IOBSECT  EQU   IOBCCW2+4                TEMP STORAGE FOR SECTOR VALUES  69000000
         ORG   IOBCCWAD                                                 70000000
*                             QISAM IOB EXTENSION                       71000000
         DS    C              W1EXTEN   APPENDAGE CODE                  72000000
         DS    C              W1OEXTEN  APPENDAGE CODE                  73000000
         MEND                                                           74000000
