*********************************************************************** 00050000
*                                                                     * 00200000
*PROPRIETARY V3 STATEMENT                                             * 00250000
*LICENSED MATERIALS - PROPERTY OF IBM                                 * 00300000
*"RESTRICTED MATERIALS OF IBM"                                        * 00350000
*5695-DF1                                                             * 00400000
*(C) COPYRIGHT 1992  IBM CORP.                                        * 00450000
*END PROPRIETARY V3 STATEMENT                                         * 00500000
*                                                                     * 00600000
*********************************************************************** 00650000
         MACRO                                                          01000000
&NAME    IGGLOAD                                                        02000000
*    12/19/72          LEVEL=02                                         02002000
.*         RELEASE 22 DELETIONS/CHANGES                                 02010000
.*         RELEASE 21 DELETIONS/CHANGES                                 02020000
.*         RELEASE 20 DELETIONS/CHANGES                                 02030000
*********************************************************************** 03000000
* ISLCOMON REFERENCE  C(DCBWKPT1)=A(ISLCOMON)                         * 04000000
* CHANGE ACTIVITY                                                     * 04050000
*$01=OY09455,HDP2210,871208,088BGT: DEFINED BIT ISLPLNSP IN BYTE  @01A* 04100000
*                                   ISLGPFLG                      @01A* 04150000
*********************************************************************** 05000000
*                                                                       06000000
&NAME    DSECT                                                          07000000
         DS    0D                                                       08000000
ISLECBA  DS    A                        FOR CP18 AND CP20               09000000
ISLIOBA  DS    CL40                                                     10000000
ISLECBB  DS    A                        FOR CP21                        11000000
ISLIOBB  DS    CL40                                                     12000000
ISLECBC  DS    A                        FOR CP19                        13000000
ISLIOBC  DS    CL40                                                     14000000
ISLAREAZ DS    CL88                     FOR CP19                        15000000
ISLIXLT  DS    CL104                    INDEX LOCATION TABLE            16000000
ISLNIRT  DS    CL3                      HHR OF DUMMY TRACK INDEX        17000000
ISLHIRT  DS    CL1                      NO INDX ENT ON PRIM DATA TRACK  18000000
ISLCBF   DS    F                        BUF CTRL PTR (RCD WITHIN BUF)   19000000
ISLBMPR  DS    F                        USED TO BUMP CBF TO NEXT RCD    20000000
ISLFBW   DS    F                        NO OF BUFS SCHED TO WRITE       21000000
ISLEOB   DS    F                        END OF BUFFR ADR                22000000
ISLNCNT  DS    CL8                      NORMAL IX COUNT, CCHHRKDD       23000000
ISLOCNT  DS    CL8                      OVFLOW IX COUNT, CCHHRKDD       24000000
ISLDCNT  DS    CL8                      DUMMY IX COUNT, CCHHRKDD        25000000
ISLNDAT  DS    CL10                     NORMAL IX DATA, MBBCCHHRFP      26000000
ISLGPFLG DS    CL1                      GENERAL PURPOSE FLAG       @01A 26050000
ISLPLNSP EQU   X'80'                    A PUT LOCATE MACRO HAS     @01A 26100000
*                                       CAUSED AN OUT OF SPACE     @01A 26150000
*                                       CONDITION                  @01A 26200000
         DS    CL1                                                 @01C 26250000
ISLODAT  DS    CL10                     OVFLOW IX DATA, MBBCCHHRFP      28000000
         DS    CL1                                                      29000000
ISLBUFNO DS    CL1                      DCBBUFNO OR 2                   30000000
ISLBUFN  DS    F                        ADDR OF SLOT N IN BCT           31000000
ISLMVC   DS    F                        COUNT OF EXECUTED MOVE (N-1)    32000000
ISLMVCT  DS    F                        NOMBR OF 255 BYTE MOVES (N+1)   33000000
ISLVRSAV DS    18F                      ISL SAVE AREA                   34000000
ISLAPSAV DS    10F                      APPENDAGE SAVE AREA             35000000
ISLWRSAV DS    16F                      ISL SAVE AREA FOR CLOSE         36000000
*                                                                       37000000
TSTWK1C  DS    F                        RESERVED AREA                   38000000
TSTWK2C  DS    F                        RESERVED AREA                   39000000
TSTWK3C  DS    F                                                        40000000
ISLNOENT DS    F                        NO ENTRIES REMAINING ON TRACK   41000000
ISLOFFST DS    F                        SIZE OF WR CKD INSTR IN BYTES   42000000
ISLD     DS    F                        DISPLACEMENT FROM CP18 START    43000000
ISLFSTBF DS    F                        ADDR OF 1ST SCHED BUF (REL)     44000000
ISLLSTBF DS    F                        ADDR OF LAST SCHED BUF (REL)    45000000
ISLCCFAD DS    F                        ADDR OF CC FLAG IN CP18         46000000
ISLKEYAD DS    F                        ADDR OF KEY OF LAST RCD ON TRK  47000000
*                                                                       48000000
CL1AD    DS    0F                       ADDR OF CP18 SKELETON (OPEN)    49000000
ISLF8AD  DS    F                        ADDR OF PUT ISLF800 (CLOSE)     49050000
CM1AD    DS    0F                       ADDR OF CP19 SKELETON (OPEN)    49100000
ISLFXAD  DS    F                        ADDR OF PJT ISLFY01 (CLOSE)     50000000
CQ1AD    DS    0F                       ADDR OF CP20 SKELETON (OPEN)    50050000
ISLFYAD  DS    F                        ADDR OF PUT ADDR OF PUT ISLFZ01 51000000
CQT1AD   DS    0F                       ADDR CP20 WC SKELETON (OPEN)    51050000
ISLFZAD  DS    F                        ADDR OF PUT ISLPA01 (CLOSE)     52000000
CQ40AD   DS    0F                       ADDR OF CP21 SKELETON (OPEN)    52050000
ISLPAAD  DS    F                        ADDR OF APP ISLPA01 (CLOSE)     53000000
CQ45AD   DS    0F                       ADDR CP21 WC SKELETON (OPEN)    53050000
ISLF1AD  DS    F                        ADDR OF APP ISLF110 (CLOSE)     54000000
* ISLVPTRS REFERENCE  C(DCBWKPT6)=A(ISLVPTRS)                           55000000
*                                                                       56000000
ISLVPTRS EQU   *                                                        57000000
ISLVPTR1 DS    A                        A(AREA Y)                       58000000
ISLVPTR2 DS    A                        A(KEYSAVE)                      59000000
ISLVPTR3 DS    A                        A(IOBBCT) BUF CTRL TBL ADR      60000000
ISLVPTR4 DS    A                        A(CP18)                         61000000
ISLVPTR5 DS    A                        A(CP19)                         62000000
ISLVPTR6 DS    A                        A(CP20)                         63000000
ISLVPTR7 DS    A                        A(CP21)                         64000000
ISLVPTR8 DS    A                        SIZE OF ISLCOMON AREA           65000000
ISLVPTR9 DS    A                        SIZE OF CHAN PROG AREA          66000000
ISLVPTRA DS    A                        A(TRACK INDEX SAVE AREA)        67000000
*                                       BIT 0--FULL TRK INDX WRITE      68000000
*                                       BIT 1--SUCCESSFUL GETMAIN       69000000
ISLVPTRB DS    A                        A(CP20B)--FULL TRK INDX WR      70000000
ISLVPTRC DS    A                        A(CP20C)--FULL TRK INDX WR      71000000
ISLFXWK1 DS    F                        WORK AREA                       72000000
ISLFXWK2 DS    F                        WORK AREA                       73000000
ISLF9WK1 DS    F                        WORK AREA                       74000000
*                                                                       75000000
ISLSHPTR DS    A                        ADDRESS SECTOR TABLE   @ZA41355 76000000
ISLRPSSS DS    F                        SECTORS FOR CP18,19,20,21       76050000
ISLCSIZE EQU   *-&NAME                  SIZE OF COMMON WORK AREA        76100000
         SPACE 3                                               @ZA41355 76110000
ISLSECTB DSECT ,                                               @ZA41355 76150000
*                                                              @ZA41355 76200000
*   TABLE OF SECTORS FOR THE SHARED TRACK.                     @ZA41355 76250000
*                                                              @ZA41355 76300000
ISLSGETM DS    0F                       SUBPOOL AND LENGTH     @ZA41355X76350000
                                        FOR FREEMAIN           @ZA41355 76400000
ISLSSUBP DS    XL1                      SUBPOOL                @ZA41355 76450000
         DS    XL1                      ALWAYS 0               @ZA41355 76500000
ISLSLEN  DS    H                        LENGTH                 @ZA41355 76550000
ISLSECTS DS    XL1                      FIRST SECTOR           @ZA41355 76600000
*                                                                       76650000
&NAME    DSECT                                                 @ZA41355 76700000
*                                                                       76750000
         MEND                                                  @ZA41355 76800000
