         MACRO                                                          00700000
&NAME    IGGSCAN  &OPTCD=                                               01400000
         GBLC  &LIB                                                     01402000
         GBLB  &CPOPS                                                   01410000
*********************************************************************** 01410600
*                                                                       01411200
* $MAC(IGGSCAN):                                                        01411800
*                                                                       01412400
*    01/10/73          LEVEL=01                                         01413000
*                                                                       01413600
*********************************************************************** 01413700
*                                                                     * 01413800
*  COPYRIGHT =                                                        * 01414000
*                                                                     * 01414200
*PROPRIETARY V3 STATEMENT                                             * 01414300
*LICENSED MATERIALS - PROPERTY OF IBM                                 * 01414400
*"RESTRICTED MATERIALS OF IBM"                                        * 01414500
*5695-DF1                                                             * 01414600
*(C) COPYRIGHT 1982  IBM CORP.                                        * 01414700
*END PROPRIETARY V3 STATEMENT                                         * 01414800
*                                                                     * 01415000
*********************************************************************** 01415100
*                                                                       01415200
*STATUS: MVS/XA DFP RELEASE 1                                           01415300
*                                                                       01415400
*  CHANGE ACTIVITY:                                                     01415500
*                                                                       01416000
* $L1=CKPT21,HDP1102,T800226,STLJAK: SUPPORT FOR MVS/XA                 01416600
*                                                                       01417200
.*         RELEASE OS/VS2-02 DELETIONS/CHANGES                          01417800
*********************************************************************** 01418400
         AIF   (&CPOPS).NOCPOPS                                         01420000
&CPOPS   SETB  1                                                        01430000
         IGGCPOPS                                                       01440000
.NOCPOPS ANOP                                                           01450000
&NAME    DSECT                          SCAN MODE WORK AREA             02100000
W1ECBI   DS    F                        ECBI-INPUT CONTROL BLOCK        02800000
W1IOBI   DS    0BL44                    LAYOUT OF IOBI                  03500000
W1IF1    DS    BL1                      FLAGS1 BYTE                     04200000
W1IF2    DS    BL1                      FLAGS2 BYTE                     04900000
W1ISENSE DS    BL2                      SENSE INFO. FROM IOS            05600000
W1IECBAD DS    A                        ECB POINTER                     06300000
W1ICSW   DS    0BL8                     CSW FROM IOS                    07000000
W1KEY    DS    0BL1                                                     07700000
W1COMAD  DS    A                        ADDR LAST CCW EXECUTED + 8      08400000
W1STATUS DS    BL2                      STATUS                          09100000
W1COUNT  DS    BL2                      RESIDUAL COUNT                  09800000
W1ISIOCC DS    0BL1                     SIO CONDITION CODE              10500000
W1ICPS   DS    A                        ADDRESS 1ST CP TO BE EXECUTED   11200000
W1IWGHT  DS    0BL1                     WEIGHT                          11900000
W1IDCBAD DS    A                        DCB POINTER                     12600000
W1ICPRES DS    A                        CP RESTART ADDRESS              13300000
W1IBLKCT DS    BL2                      BLK COUNT                       14000000
W1IERRCT DS    BL2                      ERROR COUNT (RETRIES)           14700000
W1IDAD   DS    0BL8                     IOBI DIR.ACCESS DEVICE ADDRESS. 15400000
W1IMBBCC DS    BL5                      MBBCC                           16100000
W1IHHR   DS    BL3                      HHR                             16800000
W1IEXTEN DS    BL2                      INPUT APPENDAGE CODE            17500000
W1CPNUM  DS    BL2                      USED AS SAVE AREA BY SCHED RTN  18200000
         DS    0F                       TO RELOC ON FULL WORD           18900000
W1ECBO   DS    F                        ECBO-OUTPUT EVENT CONTROL BLOCK 19600000
W1IOBO   DS    0BL44                    LAYOUT OF IOBO                  20300000
W1OF1    DS    BL1                      FLAGS 1 BYTE                    21000000
W1OF2    DS    BL1                      FLAGS 2 BYTE                    21700000
W1OSENSE DS    BL2                      SENSE INFO. FROM IOS            22400000
W1OECBAD DS    A                        ECB POINTER                     23100000
W1OCSW   DS    0BL8                     CSW FROM IOS                    23800000
W1KEYO   DS    0BL1                                                     24500000
W1COMADO DS    A                        ADDR LAST CCW EXECUTED&8        25200000
W1STATO  DS    BL2                      STATUS BYTES                    25900000
W1COUNTO DS    BL2                      RESIDUAL COUNT                  26600000
W1OSIOCC DS    0BL1                     SIO CONDITION CODE              27300000
W1OCPS   DS    A                        ADDRESS 1ST CCW TO BE EXECUTED  28000000
W1OWGHT  DS    0BL1                     WEIGHT                          28700000
W1ODCBAD DS    A                        DCB POINTER                     29400000
W1OCPRES DS    A                        CP RESTART ADDRESS              30100000
W1OBLKCT DS    BL2                      BLK CNT                         30800000
W1OERRCT DS    BL2                      ERROR COUNT (RETRIES)           31500000
W1ODAD   DS    0BL8                     IOBO DIR. ACCESS DEVICE ADDRESS 32200000
W1OMBBCC DS    BL5                      MBBCC                           32900000
W1OHHR   DS    BL3                      HHR                             33600000
W1OEXTEN DS    BL2                      OUTPUT APPENDAGE CODE           34300000
W1SAV7   DS    BL2                      USED AS SAVE AREA BY SCHED RTN  35000000
W1OSBIT1 DS    BL1                      OVERALL STATUS BYTE 1           35700000
W1OSBIT2 DS    BL1                      OVERALL STATUS BYTE 2           36400000
W1OSBIT3 DS    BL1                      OVERALL STATUS BYTE 3           37100000
W1ICNOT  DS    BL1                      BUFNO/2(USED TO SCHEDULE IP-OP) 37800000
W1KEYBLK DS    BL4                      USED BY SETL < FOR ADDR WITHIN  38500000
*                                       BLOCK OF THE REQUESTED RECORD   39200000
W1LPDR   DS    0BL8                     LAST PRIME DATA RCD READ.       39900000
W1LMBBCC DS    BL5                      LPDR MBBCC                      40600000
W1LHH    DS    BL2                      LPDR HH                         41300000
W1LR     DS    BL1                      LPDR R                          42000000
W1CBF    DS    A                        CURRENT BUFFER ADDRESS          42700000
W1EOB    DS    A                        END OF BUFFER ADDRESS           43400000
W1COUNTR DS    BL2                      CTR OF RETRIES IN WRITE CHECK   44100000
PRIMEIND DS    BL1                      SWITCH FOR TESTING SAME DEVICE  44800000
FIXIND   DS    BL1                      TEMPORARY STORAGE               45500000
W1FCPS   DS    A                        1ST CP SCHEDULED (WRITE)        46200000
W1QTABLE DS    0BL60                    QTABLE                          46900000
W1FR1ST  DS    A                        POINTER TO 1ST CP ON FREE Q     47600000
W1FRLAST DS    A                        POINTER TO LAST CP ON FREE Q    48300000
         DS    BL2                      (MUST BE ZERO)                  49000000
W1FREEC  DS    BL2                      NO. BUFFERS ON FREE Q           49700000
W1RD1ST  DS    A                        POINTER TO 1ST CP ON READ Q     50400000
W1RDLAST DS    A                        POINTER TO LAST CP ON READ Q    51100000
W1READR  DS    BL2                      RESIDUE BUFS ON READ Q -UNUSED  51800000
W1READC  DS    BL2                      NO. OF BUFS ON READ Q           52500000
W1US1ST  DS    A                        POINTER OT 1ST CP ON USER Q     53200000
W1USLAST DS    A                        POINTER TO LAST CP ON USER Q    53900000
         DS    BL2                      (MUST BE ZERO)                  54600000
W1USERC  DS    BL2                      NO. OF BUFS ON USER Q           55300000
W1PX1ST  DS    A                        POINTER TO 1ST CP ON PUTX Q     56000000
W1PXLAST DS    A                        POINTER TO LAST CP ON PUTX Q    56700000
         DS    BL2                      (MUST BE ZERO)                  57400000
W1PUTXC  DS    BL2                      NO. OF BUFFERS ON PUTX QUEUE    58100000
W1WR1ST  DS    A                        POINTER TO 1ST CP ON WRITE Q    58800000
W1WRLAST DS    A                        POINTER TO LAST CP ON WRITE Q   59500000
         DS    BL2                      (MUST BE ZERO)                  60200000
W1WRITEC DS    BL2                      NO. OF BUFFERS ON WRITE QUEUE   60900000
W1WAREA  DS    0BL36                    AREA FOR TRACK INDEX ENTRIES    61600000
W1WCOUNT DS    BL8                      COUNT OF CURRENT INDEX ENTRY    62300000
W1WCNXDM DS    BL8                      COUNT OF NEXT NORMAL OR DUMMY   63000000
W1WOVFL  DS    BL10                     DATA OF CURRENT OVERFLOW ENTRY  63700000
W1WDNXDM DS    BL10                     DATA OF NEXT NORMAL OR DUMMY    64400000
W1WPLEN  DS    BL2                      BYTE LENGTH OF WORKAREA         65100000
W1CURLEN DS    BL2                      LENGTH OF CURRENT LOGICAL REC   65800000
W1TEMPSA DS    BL4                      TEMPORARY STORAGE               66500000
W1REGSV2 DS    BL4                      AREA TO SAVE CONTENTS OF A REG  67200000
W1REGSAV DS    BL4                      AREA TO SAVE CONTENTS OF A REG  67900000
W1REGSV3 DS    BL4                      TEMPORARY STORAGE               68600000
W1CP23PT DS    A                        ADDRESS OF CP 23                79100000
W1CP26PT DS    A                        ADDRESS OF CP 26                79800000
W1CP25PT DS    A                        ADDRESS OF CP 25                80500000
         DS    0D                                                       81200000
W1CP24   DS    0BL72                    CHAN PROG 24 READ TRACK INDEXES 81900000
         IGGCP24                                                        82600000
         DS    0D                       ROUND TO DOUBLE WORD BDY        88210000
W1WDCXDM DS    CL10                     VLR DATA FOR CURR NORMAL IX     89600000
W1ISECT  DS    1C                       CURRENT INPUT SECTOR VALUE      90300000
W1OSECT  DS    1C                       CURRENT OUTPUT SECTOR VALUE     90310000
W1DCBFA  DS    1F                       DCB FIELD AREA PTR              90320000
W1DSSHR  EQU   X'80'              HIGH BIT OF W1DCBFA INDICATES THIS   *90370000
                                  IS A SHARED DATA SET             @L1A 90420000
         DS    0D                       ROUND TO NEXT DBL WD.           91700000
W1VLRLN  EQU   *-&NAME                  LENGTH OF BASIC SECTION.        92400000
*                                                                       92450000
W1ICPEXT CCW   SETSECT,0,CC,1           RPS CP EXT. FOR INPUT           93100000
W1ICPTIC CCW   TIC,0,0,0                SET SECTOR AND TIC              93150000
*                                                                       93200000
W1OCPEXT CCW   SETSECT,0,CC,1           RPS CP EXT. FOR OUTPUT          93800000
W1OCPTIC CCW   TIC,0,0,0                SET SECTOR AND TIC              93810000
*                                                                       93820000
W1RDCNT  CCW   RDCNT,0,CC+SKIP,0        POSITION TO NEXT RECORD         93850000
W1RDSECT CCW   RDSECT,0,0,0             GET SECTOR FOR NEXT GET         93900000
*                                                                       93910000
W1CN5SAV DS    A                        SAVE AREA TO RESTORE TIC        93950000
W1RPSSA  DS    4F                       WORK AREA (SIO APPENDAGES)      94000000
W1TOTAL  DS    H                        RUNNING TRACK BALANCE           94050000
W1RECLEN DS    H                        MINIMUM LENGTH PRIME RECORDS    94100000
W1OVLEN  DS    H                        MINIMUM LENGTH OVERFLOW RECORDS 94150000
W1FSTSH  DS    H                        RUNNING BALANCE TO FIRST SHARED 94200000
*   LIMITS FOR OVERFLOW SECTOR GUESSES VARIABLE                         94250000
W1RPSC1  DS    FL1                      LOWER LIMIT CYLINDER OVERFLOW   94300000
W1RPSC2  DS    FL1                      UPPER LIMIT CYLINDER OVERFLOW   94350000
W1RPSI1  DS    FL1                      LOWER LIMIT IND OVERFLOW        94400000
W1RPSI2  DS    FL1                      UPPER LIMIT IND OVERFLOW        94450000
*                                                                       94460000
W1RPSLN  EQU   *-&NAME                  LENGTH INCLUDING RPS FIELDS.    94500000
         MEND                                                           95200000
