*/*                                                                  */ 00050000
*/*PROPRIETARY V3 STATEMENT                                          */ 00100000
*/*LICENSED MATERIALS - PROPERTY OF IBM                              */ 00150000
*/*"RESTRICTED MATERIALS OF IBM"                                     */ 00200000
*/*5695-DF1                                                          */ 00250000
*/*(C) COPYRIGHT 1992  IBM CORP.                                     */ 00300000
*/*END PROPRIETARY V3 STATEMENT                                      */ 00350000
*/*                                                                  */ 00450000
         MACRO                                                          03000000
&NAME    IGGWKNCP &OPTCD=                                               06000000
         GBLB   &CPOPS                                                  09000000
.*          RELEASE 23 DELETIONS/CHANGES                                09001000
.*          RELEASE 22 DELETIONS/CHANGES                                09002000
.*          RELEASE 21 DELETIONS/CHANGES                                09003000
         AIF    (&CPOPS).NOCPOPS                                        09010000
&CPOPS   SETB   1                                                       09020000
         IGGCPOPS                                                       09030000
.NOCPOPS ANOP                                                           09040000
&NAME    DSECT                                                          09050000
CP1      DS     0D                                                      09060000
         IGGCP1                                                         09070000
         ORG    &NAME                                                   09080000
CP2      DS     0D                                                      09090000
         IGGCP2                                                         09100000
         ORG  &NAME                                                     09110000
CP8      DS    0D                                                       12000000
         IGGCP8 OPTCD=&OPTCD                                            15000000
         AIF   ('&OPTCD' EQ 'V' OR '&OPTCD' EQ 'VW').SKIP10B            18000000
CP10B    DS    0D                                                       21000000
         IGGCP10B OPTCD=&OPTCD                                          24000000
.SKIP10B ANOP                                                           27000000
CP14     DS    0D                                                       30000000
         IGGCP14 OPTCD=&OPTCD                                           33000000
CP15     DS    0D                                                       36000000
         IGGCP15                                                        39000000
CP16     DS    0D                                                       42000000
         IGGCP16  OPTCD=&OPTCD                                          45000000
CP17     DS    0D                                                       48000000
         IGGCP17 OPTCD=&OPTCD                                           51000000
         AIF   ('&OPTCD' EQ 'V' OR '&OPTCD' EQ 'VW').SKIP10A            54000000
CP10A    DS    0D                                                       57000000
         IGGCP10A OPTCD=&OPTCD                                          60000000
.SKIP10A ANOP                                                           63000000
         MEND                                                           78000000
