*%       GOTO SCAPLS1;   /*                                             00050000
         MACRO                                                          00100002
&NAME    IHASCA                                                         00150002
*                                                                    */ 00151500
*%SCAPLS1 : ;                                                           00153000
*/** START OF SPECIFICATIONS *****************************************/ 00153700
*/*                                                                  */ 00154400
*/* PROPRIETARY STATEMENT:                                           */ 00155100
*/* 5647-A01                                                         */ 00155800
*/* THIS MODULE IS "RESTRICTED MATERIALS OF IBM"                     */ 00156500
*/* (C) COPYRIGHT IBM CORP. 1980,2000                                */ 00157200
*/* LICENSED MATERIALS - PROPERTY OF IBM                             */ 00157900
*/*                                                                  */ 00158600
*/* STATUS = HBB7703                                                 */ 00159300
*/*                                                                  */ 00160000
*/* EXTERNAL CLASSIFICATION: DMTI                                    */ 00160700
*/*                                                                  */ 00161400
*/* END OF EXTERNAL CLASSIFICATION:                                  */ 00162100
*/*                                                                  */ 00162800
*/* MACRO NAME:  IHASCA                                              */ 00163500
*/*                                                                  */ 00164200
*/* DESCRIPTIVE NAME:  SPIE/ESPIE Control Area                       */ 00164900
*/*                                                                  */ 00165600
*/* DSECT NAME: SCA                                                  */ 00166300
*/*                                                                  */ 00167000
*/* COMPONENT: Recovery Termination Manager (SCRTM)                  */ 00167700
*/*                                                                  */ 00168400
*/* EYE CATCHER: SCA                                                 */ 00168700
*/*  OFFSET: 124                                                     */ 00169000
*/*  LENGTH: 4                                                       */ 00169300
*/*                                                                  */ 00169800
*/* STORAGE ATTRIBUTES:                                              */ 00170500
*/*  SUBPOOL:  245                                                   */ 00171200
*/*  KEY:  0                                                         */ 00171900
*/*                                                                  */ 00172600
*/*  RESIDENCY:  Above 16 MB line                                    */ 00172900
*/*                                                                  */ 00173200
*/* SIZE: 580 bytes including the SRB control block which            */ 00173400
*/*       immediately follows the SCA in storage                     */ 00173600
*/*                                                                  */ 00174000
*/* CREATED BY: IEAVTESP                                             */ 00174700
*/*                                                                  */ 00175400
*/* POINTED TO BY:                                                   */ 00176100
*/*     ASSBSCAH points to the SCAs in the address space             */ 00176500
*/*     TCBPIE points to the SCA for an individual task              */ 00176900
*/*                                                                  */ 00177500
*/* SERIALIZATION: Local Lock and Task Active mode                   */ 00178200
*/*                                                                  */ 00178900
*/* FUNCTION:                                                        */ 00179600
*/*     Provides information to the Program Check FLIH in its        */ 00180300
*/*     processing of Program Interruptions covered by an            */ 00181000
*/*     SPIE/ESPIE exit.  Also contains storage used as an SRB       */ 00181700
*/*     by the Program Check FLIH.                                   */ 00182400
*/*                                                                  */ 00183100
*/* METHOD OF ACCESS:                                                */ 00183800
*/* ASM:                                                             */ 00184500
*/*            IHASCA                                                */ 00185200
*/*                                                                  */ 00185900
*/* PLS:                                                             */ 00186600
*/*           %INCLUDE SYSLIB(IHASCA)                                */ 00187300
*/*                                                                  */ 00190100
*/* CHANGE ACTIVITY:                                                 */ 00190800
*/* $L1=AR     ,HBB3310,860318,PDPY: ACCESS REGISTER SUPPORT     @L1A*/ 00191500
*/* $01=OY36545,HBB4410,901015,PDCK: ESPIE RETRY MODE            @01A*/ 00192200
*/* $02=OY47768,JBB4422,911031,PDCK: PUBLIC STORAGE ESPIE        @02A*/ 00192900
*/* $P1=PIG2274,HBB5510,930806,PDKD: SHOWHDR                     @P1A*/ 00193600
*/* $P2=PR20011 HBB6601 950908 PDKD: SC1CM compid split          @P2A*/ 00193900
*/* $03=OW25304 HBB5520 970217 PDKD: Track current PIE/EPIE      @03A*/ 00194100
*/* $P3 PWK0719 HBB6608 990208 PDKD: Move above the line and chain   */ 00194200
*/*                                  off of ASSBSCAH so that the     */ 00194300
*/*                                  SCAs can be cleaned up during   */ 00194400
*/*                                  Memterm processing              */ 00194500
*/* $L2=64BITRTM HBB7703 980223 PDKD: 64-bit regs                    */ 00194600
*/* $P4=PXD0068  HBB7703 990827 PDKD: Information for calling RTM    */ 00194700
*/* $P5=PXD0441  HBB7703 990915 PDKD: Fix PLX mapping for PXD0441    */ 00194800
*/*                                                                  */ 00194900
*/*** END OF SPECIFICATIONS ******************************************/ 00195000
*%       GOTO SCAPLS;   /*                                              00196500
SCA      DSECT                                                          00200002
SCAPIE   DS    A                   ADDRESS OF PIE                       00450002
SCAPMASK DS    CL1                 PROGRAM MASK AT TIME OF SPIE         00470002
*                                  INITIATION. RESTORED AT SPIE         00480002
*                                  NULLIFICATION.                       00490002
SCAFLAGS DS    CL1                 FLAG BYTE                   @ZMC1501 00492800
SCATYPE  EQU   X'80'               IF 1 THEN ESPIE EXIT IN     @ZMC1501 00495600
*                                  CONTROL. IF 0 THEN SPIE EXIT IN      00498400
*                                  CONTROL. THIS BIT ONLY MEANINGFUL IF 00501200
*                                  PIENOPI SET TO 1                     00504000
SCARESV  DS    CL2                 RESERVED FOR FUTURE USE     @ZMC1501 00506800
SCAPARMS DS    CL16                PROG CHECK FLIH'S SRB PARMS          00510002
SCARPPTR DS    A                   RECOVERY PIE PICA ADDRESS  @ZA06785  00520003
SCAFRPPQ DS    A                   FREE RPIEPICA QUEUE HEADER @ZA06785  00530003
SCALSCR  DS    A                   LINKAGE STACK CONTROL REGISTER      X00534000
                                   AT TIME OF ERROR                @L1A 00538000
SCAARS   DS    CL64                ACCESS REGISTERS TIME OF ERROR  @L1A 00542000
SCAWORK  DS    CL4                 WORK AREA USED DURING ESPIE     @01C 00546000
SCAPPIE  DS    A                   ADDRESS OF PUBLIC STORAGE EPIE       00546600
*                                  OR ZERO.                        @02A 00547200
SCARQPIE DS    A                   PIE USED BY TESP                @02A 00547800
SCACPIE  DS    A                   PIE being used by the current        00548200
*                                  exit (if any)                   @03C 00548600
         DS    A                   RESERVED                        @02A 00549000
         DS    A                   RESERVED                        @P3A 00553200
SCANAME  DS    CL4                 'SCA ' Eyecatcher in EBCDIC     @P3A 00557400
SCABKD   DS    A                   Backward chain pointer          @P3A 00561600
*                                  A zero SCABKD means that this is     00565800
*                                  the first SCA chained from the ASSB  00570000
SCAFWD   DS    A                   Forward chain pointer           @P3A 00574200
*                                  A zero SCAFWD means that this is     00578400
*                                  the last SCA on the chain            00582600
SCAG64H  DS    CL64                64-bit GPR high halves          @L2A 00586800
SCAG64   DS    CL128               Entire 64-bit GPR               @L2A 00591000
SCACRS   DS    CL64                32-bit Control Regs             @P4A 00592400
SCACRS64 DS    CL128               Entire 64-bit Control Regs      @P4A 00593800
SCAPTR2  DS    XL1                 TEA AR number                   @P4A 00594000
*        DS    XL3                 RESERVED                        @P4A 00594200
SCAPVAD  DS    A                   TEA (32-bit)                    @P4A 00594400
SCAPVA64 DS    CL8                 TEA (64-bit)                    @P4A 00594600
SCASRB   DS    0F                  SRB USED BY PROG CHECK FLIH          00595200
SCALEN   EQU   *-SCA               LENGTH OF SCA EXCLUDING THE SRB      00600002
         MEND  ,                                                     */ 00650002
*%SCAPLS  :  ;                                                          00700000
*DECLARE                                                                00900002
*  1 SCA  BASED,                   /* SPIE CONTROL AREA              */ 00950002
*   2 SCAPIE     PTR(31),          /* ADDRESS OF PROG INTERRUPT ELEM */ 01000002
*   2 SCAPMASK   CHAR(1),          /* PROGRAM MASK AT THE TIME OF       01020000
*                                     SPIE INITIATION. RESTORED AT      01030000
*                                     SPIE NULLIFICATION.            */ 01040000
*   2 SCAFLAGS CHAR(1),            /* FLAG BYTE              @ZMC1501*/ 01042800
*     3 SCATYPE  BIT(1),           /* IF 1 THEN ESPIE EXIT IN CONTROL.  01045600
*                                     IF 0 THEN SPIE EXIT IN CONTROL.   01048400
*                                     THIS BIT ONLY MEANINGFUL IF       01051200
*                                     PIENOPI SET TO 1       @ZMC1501*/ 01054000
*   2 SCARESV    CHAR(2),         /* RESERVED FOR FUTURE USE @ZMC1501*/ 01056800
*   2 SCAPARMS   CHAR(16),         /* PROG CHK FLIH'S SRB PARMS      */ 01060002
*   2 SCARPPTR   PTR(31),        /*RECOVERY PIE PICA ADDRESS @ZA06785*/ 01065000
*   2 SCAFRPPQ   PTR(31),         /*FREE RPIEPICA QUEUE PTR  @ZA06785*/ 01070000
*   2 SCALSCR    PTR(31),         /* LINKAGE STACK CONTROL REGISTER     01075000
*                                    AT TIME OF ERROR            @L1A*/ 01080000
*   2 SCAARS     CHAR(64),        /* ACCESS REGISTERS AT TIME OF ERROR  01085000
*                                                                @L1A*/ 01090000
*   2 SCAWORK    CHAR(4),         /* WORK AREA USED BY ESPIE     @01C*/ 01095000
*   2 SCAPPIE    PTR(31),         /* PUBLIC STORAGE EPIE OR ZERO @02A*/ 01096000
*   2 SCARQPIE   PTR(31),         /* PIE USED BY TESP            @02A*/ 01097000
*   2 SCACPIE    PTR(31),         /* PIE being used by the current      01097600
*                                   exit (if any)                @03C*/ 01098200
*   2 *          CHAR(4),         /* RESERVED                    @02A*/ 01099000
*   2 *          CHAR(4),         /* RESERVED                    @P3A*/ 01149000
*   2 SCANAME    CHAR(4),         /* 'SCA ' Eyecatcher in EBCDIC        01199000
*                                                                @P3A*/ 01249000
*   2 SCABKD     PTR(31),         /* Backward chain pointer             01299000
*                                     A zero SCABKD means that this is  01349000
*                                     the first SCA chained from the    01399000
*                                     ASSB                       @P3A*/ 01449000
*   2 SCAFWD     PTR(31),         /* Forward chain pointer              01499000
*                                     A zero SCAFWD means that this is  01549000
*                                     the last SCA on the chain  @P3A*/ 01599000
*   2 SCAG64H    CHAR(64),        /* 64-bit GPR high halves      @L2A*/ 01649000
*   2 SCAG64     CHAR(128),       /* Entire 64-bit GPR           @L2A*/ 01699000
*   2 SCACRS     CHAR(64),        /* 32-bit Control Regs         @P4A*/ 01749000
*   2 SCACRS64   CHAR(128),       /* Entire 64-bit Control Regs  @P4A*/ 01799000
*   2 SCAPTR2    CHAR(1),         /* TEA AR number               @P5C*/ 01809000
*   2 *          CHAR(3),         /* Reserved                    @P5M*/ 01819000
*   2 SCAPVAD    CHAR(4),         /* TEA (32-bit)                @P5C*/ 01829000
*   2 SCAPVA64   CHAR(8),         /* TEA (64-bit)                @P4A*/ 01839000
*   2 SCASRB     CHAR(1);         /* SRB USED BY PROG CHECK FLIH        01849000
*                                    Note that the code understands the 01899000
*                                    correct length of an SRB - this    01949000
*                                    byte is used as a placeholder      01999000
*                                    for mapping purposes        @P4C*/ 02049000
