         MACRO                                                          00050000
&NAME    INTSECT7 &OPT,&TYPE=,&ID=,&RELATED=                            00100000
         LCLA  &B,&IN,&C                                                00150000
*        MACDATE = 06/30/81                                             00200000
.*                                                                      00250000
.* COPYRIGHT =                                                          00300000
.*     5740-XC6                                                         00350000
.*     THIS MACRO IS "RESTRICTED MATERIALS OF IBM"                      00400000
.*     (C) COPYRIGHT IBM CORP. 1981                                     00450000
.*     LICENSED MATERIALS - PROPERTY OF IBM                             00500000
.*                                                                      00550000
.* STATUS = OS/VS2 HBB2102                                              00600000
.*                                                                      00650000
.* COMPONENT = SC1C5 (SUPERVISOR CONTROL)                               00660000
.*                                                                      00670000
.* DISTRIBUTION LIBRARY = AMODGEN                                       00680000
.*                                                                      00690000
.* CHANGE-ACTIVITY = HBB2102 SUPPORT                                    00700000
.*                                                                      00750000
.*                   OZ65369 - INSURE THAT THE NON MVS/XA DISPLACEMENT  00758300
.*                             OF THE SVTDACTV VECTOR IS GENERATED IN   00766600
.*                             THE MACRO EXPANSION SO THAT THIS MACRO   00774900
.*                             REMAINS DOWNWARD COMPATIBLE.    @ZA65369 00783200
.*                                                                      00791500
.*A-000000-999999                                              @G860PXD 00800000
.*                                                                      00850000
         AIF   ('&OPT' EQ 'CLEAR').CLEAR  DO CLEAR PROCESSING           00900000
         AIF   ('&OPT' NE 'SET' AND '&OPT' NE 'RESET').OPTERR           00950000
&B       SETA  1                                                        01000000
&IN      SETA  3                                                        01050000
         AIF   ('&ID' EQ 'PURDQ').SET                                   01100000
&B       SETA  2                                                        01150000
         AIF   ('&ID' EQ 'STATUS').SET                                  01200000
&B       SETA  4                                                        01250000
         AIF   ('&ID' EQ 'CHAP').SET                                    01300000
&B       SETA  8                                                        01350000
         AIF   ('&ID' EQ 'RTM1').SET                                    01400000
&B       SETA  16                                                       01450000
         AIF   ('&ID' EQ 'RTM2').SET                                    01500000
&B       SETA  32                                                       01550000
         AIF   ('&ID' EQ 'ATTACH').SET                                  01600000
&B       SETA  64                                                       01650000
         AIF   ('&ID' EQ 'DETACH').SET                                  01700000
&B       SETA  1                                                        01750000
&IN      SETA  2                                                        01800000
         AIF   ('&ID' EQ 'CBVER').SET                                   01850000
&B       SETA  2                                                        01900000
         AIF   ('&ID' EQ 'MINIT').SET                                   01950000
&B       SETA  4                                                        02000000
         AIF   ('&ID' EQ 'MTERM').SET                                   02050000
&B       SETA  8                                                        02100000
.*                   THIS BIT FIELD IS RESERVED                         02150000
&B       SETA  16                                                       02200000
         AIF   ('&ID' EQ 'ACHAP').SET                                   02250000
&B       SETA  32                                                       02300000
         AIF   ('&ID' EQ 'TCBVER').SET                                  02350000
&B       SETA  64                                                       02400000
         AIF   ('&ID' EQ 'RCT').SET                                     02450000
&B       SETA  1                                                        02500000
&IN      SETA  1                                                        02550000
         AIF   ('&ID' EQ 'QVER').SET                                    02600000
&B       SETA  2                                                        02650000
         AIF   ('&ID' EQ 'SRM1').SET                                    02700000
&B       SETA  4                                                        02750000
.*                   THIS BIT FIELD IS RESERVED                         02800000
&B       SETA  8                                                        02850000
.*                   THIS BIT FIELD IS RESERVED                         02900000
&B       SETA  16                                                       02950000
.*                   THIS BIT FIELD IS RESERVED                         03000000
&B       SETA  32                                                       03050000
.*                   THIS BIT FIELD IS RESERVED                         03100000
&B       SETA  64                                                       03150000
.*                   THIS BIT FIELD IS RESERVED                         03200000
&IN      SETA  0                                                        03250000
&B       SETA  1                                                        03300000
.*                   THIS BIT FIELD IS RESERVED                         03350000
&B       SETA  2                                                        03400000
.*                   THIS BIT FIELD IS RESERVED                         03450000
&B       SETA  4                                                        03500000
.*                   THIS BIT FIELD IS RESERVED                         03550000
&B       SETA  8                                                        03600000
.*                   THIS BIT FIELD IS RESERVED                         03650000
&B       SETA  16                                                       03700000
.*                   THIS BIT FIELD IS RESERVED                         03750000
&B       SETA  32                                                       03800000
.*                   THIS BIT FIELD IS RESERVED                         03850000
&B       SETA  64                                                       03900000
         AIF    ('&ID' NE '').INVLD     BLANK ID FIELD IS VALID         03950000
         MNOTE *,'*** NO ID SPECIFIED, DEFAULT ID USED'                 04000000
         AGO   .SET                                                     04050000
.INVLD   ANOP                                                           04100000
         MNOTE *,'*** INVALID ID SPECIFIED, DEFAULT ID USED'            04150000
.SET     AIF   ('&TYPE' EQ 'GLOBAL').DISPL  GO TO DISP INTERSECT        04200000
         AIF   ('&TYPE' NE 'LOCAL').TYPERR  INVALID TYPE SPECIFIED      04250000
&NAME    L     15,PSAAOLD-PSA(0,0)       LOAD CURRENT ASCB ADDRESS      04300000
         AIF   ('&OPT' EQ 'RESET').RELCL                                04350000
         L     14,PSASVT-PSA(0,0)        LOAD SVT ADDRESS               04400000
         OI    ASCBSRQ-ASCB+&IN.(15),&B  SET INTERSECT FLAG             04450000
         BCR   15,0                      CAUSE CPU SERIALIZATION        04500000
         L     15,X'06C'(0,14)           LOAD DISPATCHER ACTIVE         04533300
*                                        FLAGS                 @ZA65369 04566600
         LTR   15,15                     CHECK IF DISP ACTIVE           04600000
         BZ    *+10                      EXIT IF NOT ACTIVE             04650000
         L     15,SVTISECT-SVT(0,14)     INTERSECT ROUTINE ENTRY        04700000
         BALR  14,15                     LINK TO ROUTINE                04750000
         MEXIT                                                          04800000
.RELCL   ANOP                                                           04850000
&C       SETA  255-&B                                                   04900000
         NI    ASCBSRQ-ASCB+&IN.(15),&C  RESET INTERSECT FLAG           04950000
         BZ    *+14                      EXIT IF BYTE IS ZERO           05000000
         L     15,PSASVT-PSA(,0)         LOAD SVT ADDRESS               05050000
         L     15,SVTISECR-SVT(,15)      INTERSECT RESET RTN ADDRESS    05100000
         BALR  15,15                     LINK TO PROCESSOR SGN RTN      05150000
         MEXIT                                                          05200000
.DISPL   ANOP                                                           05250000
&NAME    L     15,PSASVT-PSA(0,0)        LOAD SVT ADDRESS               05300000
         AIF   ('&OPT' EQ 'RESET').REDISP                               05350000
         OI    SVTDSREQ-SVT+&IN.(15),&B  SET SERIALIZATION FLAG         05400000
         BCR   15,0                      CAUSE CPU SERIALIZATION        05450000
         L     14,X'06C'(0,15)           LOAD DISPATCHER ACTIVE         05483300
*                                        FLAGS                 @ZA65369 05516600
         LTR   14,14                     CHECK IF DISP ACTIVE           05550000
         BZ    *+12                      EXIT IF NOT ACTIVE             05600000
         L     15,SVTISECT-SVT(0,15)     INTERSECT ROUTINE ENTRY        05650000
         BAL   14,0(,15)                 LINK TO ROUTINE                05700000
         MEXIT                                                          05750000
.REDISP  ANOP                                                           05800000
&C       SETA  255-&B                                                   05850000
         NI    SVTDSREQ-SVT+&IN.(15),&C  RESET SERIALIZATION FLAG       05900000
         MEXIT                                                          05950000
.CLEAR   ANOP                                                           06000000
         AIF   ('&TYPE' EQ 'LOCAL').CLEARL                              06050000
         AIF   ('&TYPE' NE 'GLOBAL').OPTERR   ERROR IF NOT GLOBAL       06100000
&NAME    L     15,PSASVT-PSA(0,0)        LOAD SVT ADDRESS               06150000
         SLR   14,14                     CLEAR WORK REGISTER            06200000
         ST    14,SVTDSREQ-SVT(0,15)     RESET ALL INTERSECT FLAGS      06250000
         MEXIT                                                          06300000
.CLEARL  ANOP                                                           06350000
&NAME    L     15,PSAAOLD-PSA(0,0)       LOAD ASCB ADDRESS              06400000
         SLR   14,14                     CLEAR WORK REGISTER            06450000
         ST    14,ASCBSRQ-ASCB(0,15)     RESET ALL INTERSECT FLAGS      06500000
         MEXIT                                                          06550000
.OPTERR  MNOTE 8,'*** INVALID OPTION, SPECIFY SET, RESET OR CLEAR'      06600000
         MEXIT                                                          06650000
.TYPERR  MNOTE 8,'*** INVALID TYPE, SPECIFY LOCAL OR GLOBAL'            06700000
         MEND                                                           06750000
