* %                          /*                                         00050000
         MACRO                                                          00100000
&NAME    IOPIDENT &TYPE,&RELATED=                                       00150000
         LCLC  &LEV                                                     00200000
         LCLC  &TYP                                                     00250000
         LCLC  &S                                                       00300000
&S       SETC  '&SYSNDX'                                                00350000
.********************************************************************** 00400000
.*01* MODULE NAME =   IOPIDENT                                        * 00450000
.*                                                                    * 00500000
.*01* DESCRIPTION NAME = I/O Prevention Identifier                    * 00550000
.*                                                                    * 00600000
.*01*   COPYRIGHT =                                                   * 00604100
.*       5740-XC6                                                     * 00609800
.*       THIS MACRO IS "RESTRICTED MATERIALS OF IBM"                  * 00615500
.*       (C) COPYRIGHT IBM CORP. 1985, 1986                           * 00621200
.*       LICENSED MATERIALS - PROPERTY OF IBM                         * 00626900
.*                                                                    * 00632800
.*01*   STATUS = JBB2220                                              * 00636900
.*                                                                    * 00641000
.*01* MACRO CALL  =                                                   * 00650000
.*                                                                    * 00700000
.*    Assembler-H -                                                   * 00750000
.*               label IOPIDENT option,RELATED=x                      * 00800000
.*                                                                    * 00850000
.*    PLS/3  -                                                        * 00900000
.*              ?label: IOPIDENT (option)  RELATED(x)                 * 00950000
.*                                                                    * 01000000
.*01* FUNCTION =   -                                                  * 01550000
.*                 OBTAIN - This option requests that an              * 01600000
.*                          I/O prevention identifier (IOPID)         * 01650000
.*                          be obtained.                              * 01700000
.*                RELEASE - This option requests that the             * 01750000
.*                          I/O prevention identifier (IOPID)         * 01800000
.*                          be released.                              * 01850000
.*                                                                    * 01900000
.*01* INPUT =                                                         * 01950000
.*           For the release option, register 1 must contain the      * 02000000
.*           IOPID that is to be released.                            * 02050000
.*                                                                    * 02100000
.*           Register 13 must point to a standard 18 word save area.  * 02150000
.*                                                                    * 02200000
.*           Caller must be authorized - supervisor state.            * 02250000
.*           Caller can be either task or SRB mode.                   * 02300000
.*           Caller must be enabled and unlocked.                     * 02350000
.*           Caller must be running in 31 bit mode.                   * 02400000
.*                                                                    * 02450000
.*                                                                    * 02500000
.*           RELATED-  Optional                                       * 02550000
.*                                                                    * 02600000
.*           LABEL  - Optional                                        * 02650000
.*                                                                    * 02700000
.*01* OUTPUT =                                                        * 02750000
.*           Register 1  - The I/O prevention identifier (IOPID)      * 02800000
.*                         On obtain, the provided IOPID.             * 02850000
.*                         On release, the IOPID that was released.   * 02900000
.*                                                                    * 02950000
.*                                                                    * 03000000
.*           Register 15 - The IOS IOPIDENT service module            * 03050000
.*                         sets the return code in register 15        * 03100000
.*                         and a reason code in register 0.           * 03150000
.*                         See this module for the meanings of        * 03200000
.*                         these codes.                               * 03250000
.*                                                                    * 03300000
.*01* DEPENDENCIES =  None                                            * 03350000
.*                                                                    * 03400000
.*01* ATTRIBUTES   =  This macro expands as re-entrant code.          * 03450000
.*                                                                    * 03500000
.*01* RESTRICTIONS =  None                                            * 03550000
.*                                                                    * 03600000
.*01* MODULE TYPE  =  MACRO                                           * 03650000
.*                                                                    * 03700000
.*01* PROCESSOR    =  Assembler-H and PLS3                            * 03750000
.*                                                                    * 03800000
.*01* NOTES                                                           * 03850000
.*                                                                    * 03900000
.*         The following macros are required:                         * 03950000
.*                CVT  DSECT=YES                                      * 04000000
.*                IECDIOCM                                            * 04050000
.*                IHAPSA (necessary only in PLS)                      * 04100000
.*                EPILOG (necessary only in PLS)                      * 04150000
.*                                                                    * 04200000
.*                                                                    * 04250000
.*         Registers 2 - 13 will be maintained across the             * 04300000
.*         interface.                                                 * 04350000
.*                                                                    * 04400000
.*01* CHANGE ACTIVITY -                                               * 04450000
.*A-000000-999999      New for JBB2216                                * 04500000
.*                                                                    * 04550000
.* $MAC(IOPIDENT),COMP(SC1C3): I/O prevent Identifier                 * 04600000
.*                                                                    * 04650000
.* $L0=HARP01   JBB2216 831115 PDLE: New in-line executable macro     * 04700000
.* $L1=VERS     HBB3310 860416 PDLE: Versioning macro into product    * 04750000
.*                                                                @L1A* 04800000
.********************************************************************** 04850000
         AIF   (N'&SYSLIST GT 1).PRMERR2                                04900000
         AIF   (N'&SYSLIST(1) GT 1).PRMERR2                             04950000
.********************************************************************** 05000000
.*     Edit parameters and set indicator in register 0 for            * 05050000
.*     option                                                         * 05100000
.********************************************************************** 05150000
.*                                                                      05200000
.*     Check to see if option is valid. If it is, set type indicator. * 05250000
         AIF   ('&TYPE' EQ 'OBTAIN').OBTROUT                            05300000
         AIF   ('&TYPE' EQ 'RELEASE').RELROUT                           05350000
         AGO   .TYPERR          ALL OTHER VALUES INVALID                05400000
.OBTROUT ANOP                                                           05450000
&TYP     SETC  '1'              TYPE INDICATOR = 1 FOR OBTAIN           05500000
         AGO   .CONT1                                                   05550000
.RELROUT ANOP                                                           05600000
&TYP     SETC  '2'              TYPE INDICATOR = 2 FOR RELEASE          05650000
.CONT1   ANOP                                                           05700000
.*                                                                      05750000
.*    Generate assembler code                                           05800000
.*                                                                      05850000
&NAME    LA    0,&TYP                    ESTABLISH OPTION IN REGISTER 0 05900000
.LEV010  ANOP                                                           05950000
         L     15,CVTPTR(0,0)              GET CVT POINTER              06000000
         L     15,CVTIXAVL-CVTMAP(0,15)    GET IOCOM POINTER            06050000
         L     15,IOCIPID-IOCOM(0,15)      GET IOSVIPID ENTRY POINT     06100000
         BALR 14,15                        BRANCH TO IOPID ROUTINE      06150000
         MEXIT                                                          06200000
.PRMERR2 MNOTE 8,'*** MORE THAN ONE POSITIONAL PARAMETER HAS BEEN SUPPLX06250000
               IED, ONLY ONE IS ALLOWED.'                               06300000
         MEXIT                                                          06350000
.TYPERR  MNOTE 8,'*** &TYPE IS AN INVALID OPTION. THE ONLY VALID VALUESX06400000
                ARE: OBTAIN OR RELEASE.'                                06450000
         MEXIT                                                          06500000
         MEND                                                           06550000
                                                                     */ 06600000
 /*------------------------------------------------------------------*/ 06650000
 IOPIDENT:  MACRO  KEYS(OPTION,RELATED);                                06700000
   /*  EXTERNAL VARIABLES                                            */ 06750000
   DCL  EHAREGS  CHAR   EXT;       /* REGS TO BE DCLD BY EPILOG      */ 06800000
   /*  INTERNAL VARIABLES                                            */ 06850000
   DCL  INDENT   FIXED;            /* INDENT  TWO COLUMNS            */ 06900000
   DCL  IMACRO   CHAR;             /* MACRO PARAMETERS               */ 06950000
   DCL  IRFY     CHAR;             /* USED TO RESPECIFY REG1 IF         07000000
                                      NECESSARY                      */ 07050000
   DCL  IERRLVL  FIXED;            /* RETURN CODE IF ERRORS          */ 07100000
   DCL  IERRMSG  CHAR;             /* ERROR MESSAGE PRINTED          */ 07150000
   IMACRO=' ?'||MACLABEL||MACNAME||MACLIST||' '||MACKEYS||' ';          07200000
   INDENT=MACCOL+2;                                                     07250000
   IERRLVL=0;                                                           07300000
   IF MACLABEL~='' THEN              /* GENERATE MACLABEL            */ 07350000
      ANS(MACLABEL)  COL(MACLMAR);                                      07400000
   ANS('DO; '|| COMMENT(IMACRO)) COL(MACCOL); /* START CODE & LIST      07450000
                                                 MACRO PARAMETERS    */ 07500000
   /******************************************************************/ 07550000
   /*  Validate the number of positional parameters                  */ 07600000
   /******************************************************************/ 07650000
   IF NUMBER(MACLIST) > 1 THEN                                          07700000
     DO;                                                                07750000
       IERRLVL = 8;                                                     07800000
       IERRMSG = 'MORE THAN ONE POSITIONAL PARAMETER HAS BEEN SUPPLIED, 07850000
  ONLY ONE IS ALLOWED.';                                                07900000
       ANS MSG(IERRMSG);                                                07950000
       ANS (COMMENT(IERRMSG)) COL(INDENT);                              08000000
     END;                                                               08050000
   /******************************************************************/ 08100000
   /*  Edit parameters and set an indicator in register 0 for        */ 08150000
   /*  option.                                                       */ 08200000
   /*  Register 0 will have format of '000000OP' where OP is the     */ 08250000
   /*  option.                                                       */ 08300000
   /******************************************************************/ 08350000
   /*                                                                */ 08400000
   /*  Check for valid option, if it is set option indicator.        */ 08450000
   /*                                                                */ 08500000
   IF MACLIST(1)='OBTAIN'  THEN                                         08550000
        IOPT='1';                  /* TYPE INDICATOR = 1 FOR OBTAIN  */ 08600000
   ELSE                                                                 08650000
      IF MACLIST(1)='RELEASE' THEN                                      08700000
        IOPT='2';                  /* TYPE INDICATOR = 2 FOR RELEASE */ 08750000
      ELSE                                                              08800000
        DO;                        /* ALL OTHER VALUES INVALID       */ 08850000
          IERRLVL=8;                                                    08900000
          IERRMSG=MACLIST(1)||                                          08950000
                    ' IS AN INVALID OPTION.  THE ONLY VALID VALUES ARE: 09000000
 OBTAIN OR RELEASE.';                                                   09050000
              ANS MSG(IERRMSG);                                         09100000
              ANS(COMMENT(IERRMSG))        COL(INDENT);                 09150000
            END;                                                        09200000
 CONT1   :                                                              09250000
 IF IERRLVL~=0  THEN               /* ANY PARAMETER ERRORS?          */ 09300000
    DO;                            /* YES                            */ 09350000
      ANS(COMMENT('INVALID PARAMETERS ENCOUNTERED.                      09400000
      NO CODE GENERATED.;'))                                            09450000
         COL(INDENT);              /* PRINT ERROR MESSAGE            */ 09500000
      ANS('END; '||COMMENT(IMACRO)) COL(MACCOL);                        09550000
      RETURN CODE(IERRLVL);        /* RETURN WITH NON-ZERO RETURN       09600000
                                      CODE                           */ 09650000
    END;                                                                09700000
 /*-------------------SPECIFY REGISTER-------------------------------*/ 09750000
 IRFY='GPR00F';                    /* RESTRICT REG  0                */ 09800000
 IF INDEX(EHAREGS,'00F')=0 THEN    /* HAS REG0 BEEN DECLARED         */ 09850000
    EHAREGS=EHAREGS||'00F';        /* NO, ADD TO EHAREGS             */ 09900000
 /*---------------- PRODUCE PLS CODE                                 */ 09950000
 ANS('RFY( '||IRFY||' ) RSTD; ') COL(INDENT);                           10000000
 ANS('GPR00F=''0000000'||IOPT||'''X; '||                                10050000
    COMMENT(' PUT PARAMETER INDICATOR IN REG0 '))  COL(INDENT);         10100000
 ANS('CALL  FLCCVT->CVTIXAVL->IOCIPID->IOCVIPID; '||                    10150000
    COMMENT(' CALL IOS IOPIDENT ROUTINE '))  COL(INDENT);               10200000
 ANS('RFY(  '||IRFY||') UNRSTD; ') COL(INDENT);                         10250000
 ANS('END; '||COMMENT(IMACRO))  COL(MACCOL); /* END CODE & LIST         10300000
                                                MACRO PARAMETERS    */  10350000
 %END IOPIDENT;                                                         10400000
