         MACRO                                                          00030019
&NAME    IOSGEN &FUNC,&TABLE=,&UCB=,&REG=,&VAR=,&ID=,&GETLOCK=,        X00080000
               &DOM=SVC                                           @02C  00130000
.********************************************************************** 80905819
.*  COPYRIGHT =                                                         80906300
.*     5645-001                                                   @P5C  80906800
.*     THIS MACRO IS "RESTRICTED MATERIALS OF IBM"                      80907300
.*     (C) COPYRIGHT IBM CORP. 1981, 1997                         @P5C  80907800
.*     LICENSED MATERIALS - PROPERTY OF IBM                             80908300
.*                                                                      80908800
.*  STATUS = HBB6603                                              @P5C  80909600
.********************************************************************** 80910400
.*                                                                      80926000
         GBLB  &IECIHDR                 HEADER SWITCH                   80941600
         GBLB  &IECIFLG                 FLG FIRST TIME SWITCH           80957200
         GBLB  &IECIDET                 DETECTOR FIRST TIME SWITCH      80972800
         GBLB  &IECITP                  TP FIRST TIME SWITCH            80988400
         GBLB  &IECISV                  SETVOID FIRST TIME SWITCH       81004000
         GBLB  &IECISVC                 SETVOIDC FIRST TIME SWITCH      81019600
.*                                                             @G860PLM 81035200
         GBLB  &IECIWTO                 FIRST TIME SWITCH          @D1A 81050800
         GBLB  &IECIBX                  BOX FIRST TIME SWITCH      @H1A 81066400
         LCLC  &LABEL                   LABEL GENERATION                81082000
         LCLC  &FIELD                   UCB FIELD                       81097600
         LCLC  &BIT,&INDEX,&GETL        UCB EQUATE NAME                 81113200
.*                                      OR BRANCH ENTRY (IECVGENA)      81128800
.*                                      OR TP ERRTAB               @02C 81144400
         AIF   ('&IECIHDR' EQ '1').IOSG010                              81160000
&IECIHDR SETB  1                        SET HEADER SWITCH               81175600
*****************************************************************       81191200
*                                                               *       81206800
*             IOSGEN MACRO                                      *       81222400
*                                                               *       81238000
*        OS/VS2                                                 *       81253600
*                                                               *       81269200
*        METHOD OF ACCESS                                       *       81284800
*              BAL - IOSGEN &FUNC,.....REQUIRED KEYWORDS        *       81300400
*              PLS - GEN REFS(....,....,MAPPING MACRO LABELS)   *       81316000
*                    (IOSGEN &FUNC,...REQUIRED KEYWORDS);       *       81331600
*                                                               *       81347200
*        THE MACRO FACILITIES OF IOSGEN ARE PROVIDED TO         *       81362800
*        SUPPORT FUNCTIONS WHICH REQUIRE A CHANGE TO OR         *       81378400
*        INFORMATION FROM THE RESOURCES WHICH GOVERN THE        *       81394000
*        CONTROL STRUCTURE OF THE I/O SUPERVISOR.  THESE        *       81409600
*        ARE NOT AN INTEGRAL PART OF IOS AND, THROUGH IOSGEN,   *       81425200
*        CAN REMAIN INDEPENDENT OF THE RESOURCE GOVERNING       *       81440800
*        STRUCTURE. IOSGEN IS A PRIVATE MACRO INTENDED FOR USE @G860PLT 81456400
*        ONLY BY AUTHORIZED SYSTEM ROUTINES.                   @G860PLT 81472000
*                                                               *       81474600
*                                                               *       81477200
*                                                               *       81479800
*   EXTERNAL CLASSIFICATION: NONE                           @P3A*       81482400
*   END OF EXTERNAL CLASSIFICATION                          @P3A*       81485000
*                                                               *       81487600
*   CHANGE ACTIVITY -                                           *       81518800
*                                                               *       81534400
*   $MAC(IOSGEN),COMP(SC1C3): IOS GEN macro                     *       81550000
*                                                               *       81565600
*     HBB2102 CHANGES                                          @G860PLT 81581200
*     SETVOIDC                                                 @G860PLM 81596800
*                                                               *       81612400
*     PN  REASON    RLSE    DATE  ORG  COMMENTS                 *       81628000
*     $D1=DCR38   JBB1326 801001  PDLH: ADD WTOID FUNCTION      *       81643600
*     $H1=3480AU  JBB2125 830130  PDLT: ASSIGN/UNASSIGN SUPPORT *       81659200
*                                       INCLUDING BOX SUPPORT   *       81674800
*     $01=OZ87557 JBB2220 850712  PDLJ: THE EQUATE FOR UCBFLG   *       81690400
*                                       OPTION OF IECIFREF      *       81706000
*                                       SHOULD BE 168 INSTEAD   *       81721600
*                                       OF 160.            @01A *       81737200
*     $P1=PA21056 JBB2220 860721  PDLG: CLEAR HIGH ORDER BYTE   *       81752800
*                                       OF UCB COMMON EXTENSION *       81768400
*                                       POINTER.                *       81784000
*     $L1=VERS    HBB3310 860416  PDLE: Versioning macro into   *       81799600
*                                       product                    @L1A 81815200
*     $L2=CNITG   HBB4410 890918  PDLU: Console Integration        @L2A 81823000
*     $L3=4DGIT   HBB5510 930304  PDKB: Four Digit Support         @L3A 81824300
*     $L4=UCBVP   HBB5520 940106  PDLU: UCB VSCR Support                81824500
*                                       Change UCB Common Extension     81824700
*                                       Addressability.            @L4A 81824900
*                                                                       81825100
*     $P2=PEO4224 HBB4410 900504  PDLU: Add error checking for          81825600
*                                       WTOID DOM keyword.         @P2A 81828200
*     $P3=PN71743 HBB5520 941020  PDLP: Add External Classification     81829000
*                                       in the PROLOG              @P3A 81829800
*     $P4=PN71885 HBB5520 941020  PDLC: Save and restore USINGs for     81830100
*                                       PURGE function             @P4A 81830400
*     $P5=PQC1623 HBB6603 960630  PDLZ: SETVOID notification exit       81831500
*                                       support                    @P5A 81832600
*     $02=OW12898 HBB4430 950630  PDCS: Add an option to get            81833700
*                                       lock prior to testing           81834800
*                                       UCBUDE                     @02A 81835900
*     $03=OW21043 HBB5520 970115  PDIU: Allow IOSGEN TP to be compiled  81836100
*                                       at HBB5520 up but still be able 81836300
*                                       to run at lower levels     @03A 81836500
*     $04=OW28441 HBB5520 970815  PDIU: Remove usage of 'R14' from      81836600
*                                       TP function. Assembler fails if 81836700
*                                       user's program does not have    81836800
*                                       'R14' declared.            @04A 81836900
*                                                               *       81837000
*                                                               *       81838600
*  OZ79766 - ADDED SPECIFICATION OF VAR=4 TO DETECTOR FUNCTION @ZA79766 81846400
*            TO ALLOW DETECTION OF RESERVE PENDING.            @ZA79766 81862000
*                                                               *       81877600
*  OZ80428 - DETECTOR FUNCTION WITH VAR= PARM DEFAULTED TO 1   @ZA80428 81893200
*            PRODUCES VAR=3 CODE IN ADDITION TO CORRECT CODE.  @ZA80428 81908800
*****************************************************************       81924400
****END OF SPECIFICATIONS****************************************       81932200
.IOSG010 ANOP                                                           81940000
         AIF   ('&FUNC' EQ 'DETECTOR').DET000                           81955600
         AIF   ('&FUNC' EQ 'TP').TP000                                  81971200
         AIF   ('&FUNC' EQ 'UCBFLG').FLG000                             81986800
         AIF   ('&FUNC' EQ 'SETVOID').SV000                    @Y30LPLC 82002400
         AIF   ('&FUNC' EQ 'SETVOIDC').SVC000                  @G860PLM 82018000
         AIF   ('&FUNC' EQ 'WTOID').WT000                          @D1A 82033600
         AIF   ('&FUNC' EQ 'BOX').BX000                            @H1A 82049200
         AGO   .IOSGEN3                                                 82064800
.*****     *****     *****     *****     *****     *****     *****      82080400
.*****     UCBFLG    *****     UCBFLG    *****     UCBFLG    *****      82096000
.*****     *****     *****     *****     *****     *****     *****      82111600
.FLG000  ANOP                                                           82127200
.*                                                                      82142800
.*                                                                      82158400
.*       CHECK FOR MISSING AND INVALID PARAMETERS                       82174000
.*                                                                      82189600
         AIF   ('&UCB' EQ '').IOSGEN3   REQUIRED KEYWORD                82205200
         AIF   ('&TABLE' EQ 'UCBNRY').FLG005                   @G860PLT 82220800
         AIF   (('&TABLE' EQ 'UCBDDRSW')                               X82236400
               OR ('&TABLE' EQ 'UCBIVRR') OR ('&TABLE' EQ 'UCBIVRS')   X82252000
               OR ('&TABLE' EQ '')).FLG005                              82267600
         AIF   ('&TABLE' EQ 'UCBITF').FLG005                            82283200
         AIF   ('&TABLE' EQ 'UCBRVRS').FLG005                  @OZ03863 82298800
         AIF   ('&TABLE' EQ 'UCBNOPTH').FLG005                 @G860PLT 82314400
         AIF   (('&TABLE' EQ 'UCBRESVH') AND ('&VAR' EQ 'OFF') AND     X82330000
               ('&SYSECT' EQ 'IEFAUSRV')).FLG005                   @H1A 82345600
         AGO   .IOSGEN3                                                 82361200
.FLG005  ANOP                                                           82376800
*********************************************************************** 82378500
*                                                                       82380200
* Note that GETLOCK is only currently valid with TABLE=UCBVRHS &   @02A 82381900
* VAR=ON.                                                          @02A 82383600
*                                                                       82385300
*********************************************************************** 82387000
         AIF   (('&GETLOCK' NE 'YES') AND ('&GETLOCK' NE 'NO') AND     X82388700
                  ('&GETLOCK' NE '')).IOSGEN3                     @02A  82390400
         AIF   (('&VAR' NE 'ON') AND ('&VAR' NE 'OFF') AND             X82392400
               ('&VAR' NE 'TEST') AND ('&VAR' NE '')).IOSGEN4           82408000
         AIF   (('&VAR' NE 'ON') AND ('&VAR' NE 'OFF') AND             X82423600
                ('&TABLE' EQ 'UCBRVRS')).IOSGEN3               @G860PLT 82439200
         AIF   (('&REG' NE 'COND') AND ('&REG' NE 'UNCOND') AND        X82454800
               ('&REG' NE '')).IOSGEN3                                  82470400
         AIF   ('&TABLE' EQ 'UCBRVRS').FLG007                  @ZA35584 82486000
         AIF   ((('&REG' EQ 'COND') OR ('&REG' EQ 'UNCOND')) AND       X82501600
               ('&TABLE' NE 'UCBNRY')).IOSGEN3                          82517200
.FLG007  ANOP                                                           82532800
         AIF   ('&IECIFLG' EQ '1').FLG010    ONE CALL ONLY              82548400
&IECIFLG SETB  1                        SET FIRST TIME SWITCH           82564000
         SPACE 2                                                        82579600
*****************************************************************       82595200
*                                                               *       82610800
* FUNCTION:                                                     *       82626400
*    UCBFLG - TESTS, SETS OR RESETS SELECTED STATUS             *       82642000
*             INDICATORS IN THE UCB.                            *       82657600
*                                                               *       82673200
* MACRO CALL:                                                   *       82688800
*    LABEL  IOSGEN  UCBFLG,UCB=(REG),VAR=ON OR OFF OR TEST,     *       82704400
*                   TABLE=UCBBITNAME,REG=COND OR UNCOND         *       82720000
*                                                               *       82735600
*         PLS - GEN REFS(UCBFLA,UCBFLB,UCBFLC,CVTPTR,          @G860PLT 82751200
*               CVTIXAVL,IOCGENA,UCBOB,UCB3TAPE,CVTMAP,        @G860PLT 82766800
*               IOCOM)                                         @G860PLT 82782400
*               (IOSGEN UCBFLG,...KEYWORDS AS IN BAL);          *       82798000
*         NOTE:  %DEACT OFF; MUST FOLLOW INCLUDE STATEMENTS     *       82813600
*                FOR VAR=OFF.                                   *       82829200
*         NOTE:  THE ABOVE REPRESENT THE MAXIMUM REFERENCES     *       82844800
*                REQUIRED.                                      *       82860400
*                                                               *       82876000
*    SPECIAL TAPE OPTION:                                       *       82891600
*         LABEL  IOSGEN  UCBFLG,UCB=(REG)                       *       82907200
*                                                               *       82922800
* INPUT:                                                        *       82938400
*    REGISTER 13 MUST CONTAIN THE ADDRESS OF 16 WORD SAVEAREA   *       82954000
*    FOR THE 'ON' OR 'OFF' OPTIONS AND SPECIAL TAPE OPTION.     *       82969600
*                                                               *       82985200
*    UCB=  MUST SPECIFY A GPR (ABSOLUTE OR SYMBOLIC) CONTAINING *       83000800
*    THE ADDRESS OF THE UCB REPRESENTING THE DEVICE FOR WHICH   *       83016400
*    THE FUNCTION IS DIRECTED.  THIS GPR MUST POINT TO THE      *       83032000
*    UCB COMMON SEGMENT. FOR MULTIPLE EXPOSURE DEVICES,         *       83047600
*    IECVGENA WILL ACQUIRE THE UCB LOCK FROM THE BASE UCB       *       83063200
*    AND WILL USE THE ADDRESS IN THIS PARAMETER  TO             *       83078800
*    PERFORM THE REQUESTED OPERATION.                           *       83094400
*                                                               *       83110000
*    VAR=  INDICATES THE TYPE OF ACTION TO BE PERFORMED.        *       83125600
*         ON   - THE DESIGNATED INDICATOR IS TO BE TURNED ON.   *       83141200
*         OFF  - THE DESIGNATED INDICATOR IS TO BE TURNED OFF.  *       83156800
*         TEST - (DEFAULT) THE DESIGNATED INDICATOR IS TO       *       83172400
*                BE TESTED.                                     *       83188000
*                                                               *       83203600
*    TABLE=  SPECIFIES THE SYMBOLIC NAME OF THE INDICATOR TO    *       83219200
*    BE TESTED, SET, OR RESET.  THE FOLLOWING SYMBOLS ARE       *       83234800
*    SUPPORTED:                                                 *       83250400
*         UCBNRY   - THE DEVICE IS NOT READY.                   *       83266000
*         UCBDDRSW - A VOLUME SWITCH (DYNAMIC DEVICE            *       83281600
*                    RECONFIGURATION) IS PENDING ON THIS DEVICE.*       83297200
*         UCBIVRS  - INTERVENTION REQUIRED MESSAGE HAS BEEN SENT*       83312800
*         UCBIVRR  - INTERVENTION REQUIRED MESSAGE IS NEEDED.   *       83328400
*         UCBITF   - INTERCEPT CONDITION.                       *       83344000
*         UCBRVRS  - NOTREADY AND INTERVENTION MSG             @OZ03863 83359600
*                    SENT. NOT VALID WITH VAR=TEST.            @G860PLT 83375200
*         UCBNOPTH - NO PATHS                                  @G860PLT 83390800
*         UCBRESVH - DEVICE RESERVED OR ASSIGNED (FOR USE ONLY  *       83406400
*                    BY THE ASSIGN SERVICE) - ONLY THE VAR=OFF  *       83422000
*                    OPTION IS SUPPORTED.                          @H1A 83437600
*                                                               *       83453200
*    REG=  APPLIES TO UCBNRY ('ON' ONLY) AND UCBRVRS           @G860PLT 83468800
*         COND   - (DEFAULT) IMPLIES THAT THE NOT READY STATUS  *       83484400
*                   IS TO BE SET ONLY IF AN UNSOLICITED DEVICE  *       83500000
*                   END HAS NOT OCCURED SINCE THE LAST SIO      *       83515600
*                   WAS ISSUED.                                 *       83531200
*         UNCOND - IMPLIES SETTING THE INDICATOR REGARDLESS OF  *       83546800
*                  THE INTERRUPT STATUS.                        *       83562400
*                                                               *       83578000
*    LABEL  OPTIONAL LABEL PARAMETER.                           *       83593600
*                                                               *       83609200
*    OPTIONAL TAPE OPTION - THE STATUS INDICATORS 'NOT READY'   *       83624800
*    AND 'INTERCEPT CONDITION' ARE SET OFF.  THIS CALL IS VALID *       83640400
*    ONLY FOR A TAPE DEVICE AND IF BOTH THE STATUS INDICATORS   *       83656000
*    ARE ALREADY SET ON.  THE 16 WORD SAVE AREA IS REQUIRED FOR *       83671600
*    THIS EXPANSION.  TO RESET AN INTERCEPT CONDITION, I/O      *       83687200
*    SUPERVISOR RESOURCES ALLOCATED TO MAINTAIN THE STATUS OF   *       83702800
*    THE INTERRUPT MUST BE RELEASED.                            *       83718400
*                                                               *       83734000
* OUTPUT:                                                       *       83749600
*    TEST OPTION - THE CONDITION CODE OF ZERO INDICATES THE     *       83765200
*    INDICATOR IS TURNED OFF.                                   *       83780800
*                                                               *       83796400
* EXTERNAL ROUTINES:                                            *       83812000
*    IECVGENA - RESIDENT IOSGEN SUBROUTINE. THIS MODULE IS      *       83827600
*    ENTERED VIA A BAL INSTRUCTION FOR ALL CONDITIONS EXCEPT    *       83843200
*    'TEST'.                                                   @G860PLT 83858800
*                                                               *       83874400
* ATTRIBUTES:                                                   *       83890000
*    THE UCBFLG FUNCTION IS EXPANDED AS IN-LINE, REENTRANT      *       83905600
*    CODE AND MAY BE EXPANDED A VARIABLE NUMBER OF TIMES        *       83921200
*    WITHIN THE SAME ASSEMBLY WITHOUT DUPLICATING SYMBOLS.      *       83936800
*                                                               *       83952400
* OTHER:                                                        *       83968000
*                                                               *       83983600
*    THE FOLLOWING MAPPING MACRO ARE REQUIRED:                  *       83999200
*         IEFUCBOB              (TEST ONLY)                     *       84014800
*         CVT   DSECT=YES       (ON & OFF ONLY)                 *       84030400
*         IECDIOCM              (ON & OFF ONLY)                 *       84046000
*                                                               *       84061600
*    LOCKS ARE NOT REQUIRED BY THIS FUNCTION.                   *       84077200
*    FOR VAR=ON OR VAR=OFF, NO LOCK CAN BE HELD WHICH WOULD    @G860PLT 84092800
*    PRECLUDE OBTAINING THE UCB LOCK.                          @G860PLT 84108400
*                                                               *       84124000
*****************************************************************       84139600
         SPACE 2                                                        84155200
*****************************************************************       84170800
*                                                               *       84186400
*        REGISTER EQUATES                                       *       84202000
*                                                               *       84217600
*****************************************************************       84233200
         SPACE                                                          84248800
IECIFGR0 EQU   0                   UCB PREFIX OFFSET REG                84264400
IECIFUCB EQU   4                   UCB PTR                              84280000
IECIFVAR EQU   5                   VARIATION VALUE REG                  84295600
*                                  *APPLIES TO NORMAL REQUESTS          84311200
IECIFSAV EQU   13                  SAVE AREA PTR                        84326800
IECIFRTN EQU   14                  RETURN REG FROM IECVGENA             84342400
IECIFBRR EQU   15                  BRANCH REG TO IECVGENA               84358000
         SPACE                                                          84373600
*****************************************************************       84389200
*                                                               *       84404800
*        UCB - UNIT CONTROL BLOCK                               *       84420400
*              FLAGS DEFINED TO PREVENT PLS XREF PROBLEMS       *       84436000
*                                                               *       84451600
*****************************************************************       84467200
         SPACE                                                          84482800
IECIFXXX EQU   512                 UCB PREFIX                           84498400
IECIFDDR EQU   X'01'               UCBDDRSW  - TEST                     84514000
IECIFIVR EQU   X'04'               UCBIVRR  - TEST                      84529600
IECIFIVS EQU   X'08'               UCBIVRS  - TEST                      84545200
IECIFNRY EQU   X'40'               UCBNRY  - TEST                       84560800
*                                  *AND (SPECIAL TAPE CALL)             84576400
IECIFUDE EQU   X'20'               UCBUDE - (UCBNRY 'ON' COND           84592000
*                                           OR UCBRVRS)                 84607600
IECIF3TA EQU   X'80'               UCB3TAPE - (SPECIAL TAPE CALL)       84623200
IECIFINT EQU   X'80'               UCBINCPT TEST               @G860PLT 84638800
*                                  *AND (SPECIAL TAPE CALL)             84654400
IECIFNOP EQU   X'40'               UCBNOPTH - TEST             @G860PLT 84670000
         SPACE                                                          84685600
*****************************************************************       84701200
*                                                               *       84716800
*        SPECIAL ENTRY POINT BRANCH TABLE VALUES FOR IECVGENA   *       84732400
*        THESE VALUES ARE DISPLACEMENTS FROM REGISTER 15        *       84748000
*        ALL UCBFLG VARIATIONS USE THE DISPLACEMENT 'IECIFLOK'  *       84763600
*                                                               *       84779200
*****************************************************************       84794800
         SPACE                                                          84810400
*        EQU   0                   AVAILABLE                   @G860PLT 84826000
*        EQU   4                   AVAILABLE                   @G860PLT 84841600
*        EQU   8                   NOT AVAILABLE   (RESERVED)           84857200
*        EQU   12                  NOT AVAILABLE   (RESERVED)  @G860PLT 84872800
IECIFLOK EQU   16                  UCBFLG                               84888400
*                                  *SETS UCB LOCK IMMEDIATELY           84904000
         SPACE                                                          84919600
*****************************************************************       84935200
*                                                               *       84950800
*        NORMAL BRANCH TABLE VALUES FOR IECVGENA                *       84966400
*        THESE VALUES ARE DISPLACEMENTS FROM REGISTER 5         *       84982000
*                                                               *       84997600
*****************************************************************       85013200
         SPACE                                                          85028800
IECIFNRC EQU   0                   UCBNRY - ON (CONDITIONALLY)          85044400
IECIFNRN EQU   4                   UCBNRY - ON (UNCONDITIONALLY)        85060000
IECIFNIS EQU   8                   UCBNRY & UCBINCPT-OFF(TAPE) @G860PLT 85075600
IECIFNRF EQU   12                  UCBNRY - OFF                         85091200
IECIFDDN EQU   36                  UCBDDRSW - ON                        85106800
IECIFDDF EQU   44                  UCBDDRSW - OFF                       85122400
IECIFIVN EQU   68                  UCBIVRR - ON                         85138000
IECIFIVF EQU   76                  UCBIVRR - OFF                        85153600
IECIFRSN EQU   84                  UCBIVRS - ON                         85169200
IECIFRSF EQU   92                  UCBIVRS - OFF                        85184800
IECIFITN EQU   116                 UCBITF - ON                          85200400
IECIFITF EQU   124                 UCBITF - OFF                         85216000
IECIFRVN EQU   128                 UCBNRY ON-UCBIVRS ON        @OZ03863 85231600
*                                  UNDER SAME LOCK             @OZ03863 85247200
IECIFRVF EQU   136                 UCBNRY & IVRS OFF  @ZA16174,@OZ03863 85262800
*                                  UNDER SAME LOCK             @OZ03863 85278400
IECIFNON EQU   148                 UCBNOPTH - ON               @G860PLT 85294000
IECIFNOF EQU   156                 UCBNOPTH - OFF              @G860PLT 85309600
IECIFREF EQU   168                 UCBRESVH - OFF             @01C,@H1A 85325200
IECIFRVNT EQU  180                 Same as IECIFRVN except test         85330400
*                                  UCBUDE first w/ the UCB lock    @02A 85335600
         SPACE                                                          85340800
.FLG010  ANOP                                                           85356400
         AIF   (('&GETLOCK' EQ 'NO') OR ('&GETLOCK' EQ '')).FLG015 @02A 85359000
&GETL    SETC 'T'                        Indicate getlock prior         85361600
*                                   to testing bit                 @02A 85364200
.FLG015  ANOP                                                      @02A 85366800
.*                                                                      85369400
.*                                                                      85372000
.*       CHECK FOR TYPE OF VARIATION                                    85387600
.*                                                                      85403200
         AIF   ('&TABLE' EQ '').FLG070  SPECIAL TAPE CALL               85418800
         AIF   (('&VAR' NE 'TEST') AND ('&VAR' NE '')).FLG080           85434400
.*                                                                      85450000
.*       MUST BE 'TEST'                                                 85465600
.*       SET &FIELD EQUAL TO UCB FIELD NAME                             85481200
.*       SET &BIT TO EQUATE DESIGNATION                                 85496800
.*                                                                      85512400
         AIF   ('&TABLE' NE 'UCBIVRS').FLG020                           85528000
&BIT     SETC  'IVS'                    PREVENT DUPLICATE SYMBOLS       85543600
         AGO   .FLG030                                                  85559200
.FLG020  ANOP                                                           85574800
&BIT     SETC  '&TABLE'(4,3)            SET BIT NAME                    85590400
.FLG030  ANOP                                                           85606000
         AIF   ('&TABLE' NE 'UCBNRY').FLG040                   @G860PLT 85621600
&FIELD   SETC  'UCBFLA'                                                 85637200
         AGO   .FLG060                                                  85652800
.FLG040  ANOP                                                           85668400
         AIF   (('&TABLE' NE 'UCBITF') AND                             X85684000
               ('&TABLE' NE 'UCBNOPTH')).FLG050               @G860PLT  85699600
&FIELD   SETC  'UCBFLB'                                                 85715200
         AIF   ('&TABLE' NE 'UCBITF').FLG060                  @G860PLT  85730800
&BIT     SETC  'INT' AVOID DUPLICATE SYMBOLS                            85746400
         AGO   .FLG060                                                  85762000
.FLG050  ANOP                                                           85777600
&FIELD   SETC  'UCBFLC'                                                 85793200