         MACRO                                                          00050000
&NAME    PUTIX &RPL=                                                    00100000
.*                                                                      00101000
.*  $MAC(PUTIX):                                                        00102000
.*                                                                      00103000
.*  COPYRIGHT = NONE.                                          @WA04075 00103300
.*                                                             @WA04075 00103600
.*PROPRIETARY V3 STATEMENT                                     @WA04075 00103900
.*LICENSED MATERIALS - PROPERTY OF IBM                         @WA04075 00104200
.*"RESTRICTED MATERIALS OF IBM"                                @WA04075 00104500
.*5695-DF1                                                     @WA04075 00104800
.*(C) COPYRIGHT 1992  IBM CORP.                                @WA04075 00105100
.*END PROPRIETARY V3 STATEMENT                                 @WA04075 00105500
.*                                                                      00106000
.*  STATUS = DFSMS/MVS RELEASE 1.3.0                                    00106300
.*                                                                      00106600
.*  CHANGE ACTIVITY:                                                    00106900
.*                                                                      00107200
.*  PREVENT COPYRIGHT FROM SHOWING WHEN MACRO IS INVOKED       @WA04075 00107500
.*                                                                      00109000
         LCLA  &I                       WORK VARIABLE                   00110000
         AIF   (N'&SYSLIST EQ 0).NOPOS  GO IF NO POSITIONAL OPERANDS    00150000
.POSLOOP ANOP                                                           00160000
&I       SETA  &I+1                     POINT TO NEXT POS OPERAND       00170000
         IDAERMAC 1,&SYSLIST(&I)        ISSUE WARNING MNOTE             00200000
         AIF   (&I LT N'&SYSLIST).POSLOOP  GO IF MORE POS OPERANDS      00210000
.NOPOS   ANOP                                                           00250000
         AIF   ('&RPL' NE '').OKY       GO IF RPL IS SPECIFIED          00300000
         IDAERMAC 2,RPL                 ISSUE ERROR MNOTE               00350000
         MEXIT                          ..AND TERMINATE                 00400000
.OKY     ANOP                                                           00450000
         AIF   ('&NAME' EQ '').NAMEB    GO IF NO NAME                   00460000
&NAME    DS    0H                                                       00500000
.NAMEB   ANOP                                                           00510000
         AIF   ('&RPL'(1,1) EQ '(').RPLR  GO IF RPL SPECIFIED AS REG    00550000
         LA    1,&RPL                   LOAD RPL ADDRESS                00600000
         AGO   .AREG                    GO AROUND REG CODE              00650000
.RPLR    ANOP                                                           00700000
         AIF   ('&RPL' EQ '(1)').AREG   GO IF RPL ADDRESS ALREADY IN 1  00750000
         LR    1,&RPL(1)                LOAD RPL ADDRESS                00800000
.AREG    ANOP                                                           00850000
         LA    0,12                     INDICATE PUT INDEX              00900000
         L     15,24(,1)                LOAD ACB ADDRESS FROM RPL       00950000
         L     15,8(,15)                LOAD VSAM INTERFACE RTN ADDR    01000000
         BALR  14,15                    LINK TO INTERFACE ROUTINE       01050000
         MEND                                                           01100000
