         MACRO                                                          00050000
&NAME    TERMRPL &RPL=                                                  00100000
.*                                                                      00150000
.*    MACRO NAME = TERMRPL                                              00200000
.*                                                                      00250000
.*    DESCRIPTIVE NAME = TERMINATE RPL                                  00300000
.*                                                                      00378400
.*  COPYRIGHT = NONE.                                          @WA04075 00379400
.*                                                             @WA04075 00380400
.*PROPRIETARY V3 STATEMENT                                     @WA04075 00381400
.*LICENSED MATERIALS - PROPERTY OF IBM                         @WA04075 00382400
.*"RESTRICTED MATERIALS OF IBM"                                @WA04075 00383400
.*5695-DF1                                                     @WA04075 00384400
.*(C) COPYRIGHT 1992  IBM CORP.                                @WA04075 00385400
.*END PROPRIETARY V3 STATEMENT                                 @WA04075 00386900
.*                                                                      00388400
.*                                                                      00389400
.*  STATUS = DFSMS/MVS RELEASE 1.3.0                                    00390400
.*                                                                      00392600
.*    FUNCTION = THE TERMRPL MACRO IS USED BY AN ESTAE ROUTINE          00400000
.*               TO RELEASE THE VSAM RESOURCES OF A TERMINATED          00450000
.*               RPL.                                                   00500000
.*                                                                      00550000
.*  CHANGE ACTIVITY:                                                    00600000
.*                                                                      00650000
.*  PREVENT COPYRIGHT FROM SHOWING WHEN MACRO IS INVOKED       @WA04075 00700000
.*                                                                      00850000
         LCLA  &I                       WORK VARIABLE                   00900000
         AIF   (N'&SYSLIST EQ 0).NOPOS  GO IF NO POSITIONAL OPERANDS    00950000
.POSLOOP ANOP                                                           01000000
&I       SETA  &I+1                     POINT TO NEXT POS OPERAND       01050000
         IDAERMAC 1,&SYSLIST(&I)        ISSUE WARNING MNOTE             01100000
         AIF   (&I LT N'&SYSLIST).POSLOOP  GO IF MORE POS OPERANDS      01150000
.NOPOS   ANOP                                                           01200000
         AIF   ('&RPL' NE '').OKY       GO IF RPL IS SPECIFIED          01250000
         IDAERMAC 2,RPL                 ISSUE ERROR MNOTE               01300000
         MEXIT                          ..AND TERMINATE                 01350000
.OKY     ANOP                                                           01400000
         AIF   ('&NAME' EQ '').NAMEB    GO IF NO NAME                   01450000
&NAME    DS    0H                                                       01500000
.NAMEB   ANOP                                                           01550000
         AIF   ('&RPL'(1,1) EQ '(').RPLR  GO IF RPL SPECIFIED AS REG    01600000
         LA    1,&RPL                   LOAD RPL ADDRESS                01650000
         AGO   .AREG                    GO AROUND REG CODE              01700000
.RPLR    ANOP                                                           01750000
         AIF   ('&RPL' EQ '(1)').AREG   GO IF RPL ADDRESS ALREADY IN 1  01800000
         LR    1,&RPL(1)                LOAD RPL ADDRESS                01850000
.AREG    ANOP                                                           01900000
         LA    0,19                     INDICATE TERMINATE RPL          01950000
         L     15,24(,1)                LOAD ACB ADDRESS FROM RPL       02000000
         L     15,8(,15)                LOAD VSAM INTERFACE RTN ADDR    02050000
         BALR  14,15                    LINK TO INTERFACE ROUTINE       02100000
         MEND                                                           02150000
