         MACRO                                                          00050000
&NAME    TESTPROT &ADDR=,&KEY=                                          00100000
.*    COPYRIGHT =                                                       00108000
.*       5740-XC6 COPYRIGHT IBM CORP 1977,1981;                @G860PXB 00116000
.*       LICENSED MATERIAL-PROGRAM; PROPERTY OF IBM;                    00124000
.*       REFER TO COPYRIGHT INSTRUCTIONS FORM NUMBER                    00132000
.*       G120-2083.                                                     00140000
.*                                                                      00142500
.*    STATUS = OS/VS2 HBB2102                                  @G860PXB 00145000
.*                                                                      00147500
.*  OPERAND SCAN CHECK                                                  00150000
         LCLC  &OP1                     OPERAND 1              @G860PXB 00200000
         LCLC  &OP2                     OPERAND 2              @G860PXB 00236800
         AIF   ('&ADDR' EQ '').ERROR1                                   00273600
         AIF   ('&KEY' EQ '').ERROR2                                    00310400
.*  CHECK FOR REGISTER OPERANDS OR BASE-DISPLACEMENT OPERANDS           00347200
         AIF   ('&ADDR'(1,1) EQ '(').REG2                               00384000
&OP1     SETC  '&ADDR'                  STORAGE ADDR TESTED    @G860PXB 00420800
         AGO   .ADRTEST                                        @ZM48270 00457600
.REG2    ANOP                                                  @G860PXB 00494400
&OP1     SETC  '0&ADDR'                 STORAGE ADDR TESTED    @G860PXB 00531200
.ADRTEST ANOP                                                           00568000
         AIF   ('&KEY'(1,1) EQ '(').REG1                                00604800
&OP2     SETC  '&KEY'                   STORAGE KEY IN 24-27   @G860PXB 00641600
         AGO   .GEN                                            @G860PXB 00678400
.REG1    ANOP                                                  @G860PXB 00715200
&OP2     SETC  '0&KEY'                  STORAGE KEY IS 24-27   @G860PXB 00752000
.*  GENERATE THE INSTRUCTION                                   @G860PXB 00788800
.GEN     ANOP                                                  @G860PXB 00825600
&NAME    TPROT &OP1,&OP2                ADDRESS, KEY IS 24-27  @G860PXB 00862400
         MEXIT                                                          00900000
.ERROR1  MNOTE 8,'ADDR= KEYWORD REQUIRED BUT NOT SPECIFIED'             00950000
         MEXIT                                                          01000000
.ERROR2  MNOTE 8,'KEY= KEYWORD REQUIRED BUT NOT SPECIFIED'              01050000
         MEND                                                           01100000
