         MACRO                                                          00050000
&NAME    WAITR &CNT,&ECB=,&ECBLIST=                                     00100000
.*                                                                      00108300
.* COMPONENT = SC1CL (TASK MANAGEMENT)                                  00116600
.*                                                                      00124900
.* DISTRIBUTION LIBRARY = AMODGEN                                       00133200
.*                                                                      00141500
         AIF   ('&ECB&ECBLIST' EQ '').E1                                00150000
         AIF   (T'&ECB NE 'O' AND T'&ECBLIST NE 'O').E2                 00200000
         AIF   ('&ECB' NE '').CHECK                                     00250000
         AIF   ('&ECBLIST'(1,1) EQ '(').REG                             00300000
         AGO   .CONTD                                                   00350000
.CHECK   AIF   ('&ECB'(1,1) NE '(').CONTD                               00400000
.REG     ANOP                                                           00450000
&NAME    LA    1,0(0,&ECB(1)&ECBLIST(1))   CLEAR HIGH BYTE OF REG       00500000
         AIF   ('&CNT' EQ '').CONTF                                     00550000
         AIF   ('&CNT'(1,1) EQ '(').CONTG                               00600000
         LA    0,&CNT.(0,0)            LOAD PARAMETER REG 0      YM1995 00650000
         AGO   .CONTA                                                   00700000
.CONTD   ANOP                                                           00750000
         AIF   ('&CNT' EQ '&CNT(1)' AND '&CNT' NE '').CONTC             00800000
&NAME    IHBINNRA &ECB&ECBLIST,&CNT    LOAD REG 0 AND REG 1             00850000
         AIF   ('&CNT' NE '').CONTA                                     00900000
.CONTF   LA    0,1(0,0)                COUNT OMITTED,1 USED             00950000
         AGO   .CONTA                                                   01000000
.CONTG ANOP                                                             01050000
         LR    0,&CNT(1)                                                01100000
         AGO   .CONTA                                                   01150000
.CONTC   ANOP                                                           01200000
&NAME    IHBINNRA &ECB&ECBLIST,&CNT.(0,0)                               01250000
.CONTA   AIF   ('&ECBLIST' EQ '').CONTB                                 01300000
         LCR   1,1                     INDICATE ECBLIST USED            01350000
.CONTB   LCR   0,0                     INDICATE WAITR MACRO             01400000
         SVC   1                       LINK TO WAIT ROUTINE             01450000
         MEXIT                                                          01500000
.E1      IHBERMAC 11                   ECB AND ECBLIST  MISSING         01550000
         MEXIT                                                          01600000
.E2      IHBERMAC 1003,ECB,ECBLIST     ECB AND ECBLIST BOTH SPEC.       01650000
         MEND                                                           01700000
