         MACRO                                                          00000001
&NAME    ACMEDEB &DCB         ACME EXTENT BUILDER              RTS 4/73 00000002
&NAME    IHBINNRA &DCB         SET PARAMETER                            00000003
         SVC   244 ACMEDEB                                              00000004
         MEND                                                           00000005
