         MACRO                                                          00000001
&NAME    AIRB  &DCB,&ASYNCH   CREATE APPENDAGE IRB             RTS 2/68 00000002
&NAME    IHBINNRA &DCB,&ASYNCH  SET PARAMETERS                          00000003
         SVC   248  AIRB                                                00000004
         MEND                                                           00000005
