         MACRO                                                          00001000
&NAME    CHGAVT &DCB=,&EOEA=,&SIOA=,&PCIA=,&CENDA=,&XENDA=,&AERR=,     *00002000
               &PGFX=NO,&SIOX=NO,&IOVR=NO,&MF=I                         00003000
         LCLB  &FOUND         1=WE HAVE FOUND THE LAST APPENDAGE        00004000
         LCLC  &LENGTH,&GNAME WORK AREA                                 00005000
         LCLA  &FLAG          FLAG FIELD FOR SIOA                       00006000
         LCLC  &ELAST,&SLAST,&PLAST,&CLAST,&XLAST FLAG FIELDS           00007000
         LCLC  &DCBAD         ADJUSTED DCB ADDRESS                      00008000
.*      MACRO FOR CHANGE APPENDAGE VECTOR TABLE SVC - VS OR MVT VERSION 00009000
.*                                           DATE ON CNOP CARD     RTS  00010000
&GNAME   SETC  'IHB&SYSNDX'                                             00011000
&DCBAD   SETC  '&DCB'         ADJUST DCB ADDRESS FOR REG NOTATION       00012000
         AIF   ('&DCB'(1,1) NE '(').TSTFORM                             00013000
&DCBAD   SETC  '0'                                                      00014000
.TSTFORM AIF   ('&MF(1)' EQ 'E').EFORM  TEST MACRO FORM                 00015000
         AIF   ('&DCB' NE '').DCBOK                                     00016000
         IHBERMAC 6 DCB OPERAND REQD - NOT SPECIFIED                    00017000
         MEXIT                                                          00018000
.DCBOK   ANOP                           SET LAST INDICATORS             00019000
&FOUND   SETB  (T'&AERR NE 'O')                                         00020000
&XLAST   SETC  '00'                                                     00021000
         AIF   (&FOUND).SETC                                            00022000
&XLAST   SETC  '80'                                                     00023000
&FOUND   SETB  (T'&XENDA NE 'O')                                        00024000
.SETC    ANOP                                                           00025000
&CLAST   SETC  '00'                                                     00026000
         AIF   (&FOUND).SETP                                            00027000
&CLAST   SETC  '80'                                                     00028000
&FOUND   SETB  (T'&CENDA NE 'O')                                        00029000
.SETP    ANOP                                                           00030000
&PLAST   SETC  '00'                                                     00031000
         AIF   (&FOUND).SETS                                            00032000
&PLAST   SETC  '80'                                                     00033000
&FOUND   SETB  (T'&PCIA NE 'O')                                         00034000
.SETS    ANOP                                                           00035000
&SLAST   SETC  '00'                                                     00036000
         AIF   (&FOUND).SETE                                            00037000
&SLAST   SETC  '80'                                                     00038000
&FOUND   SETB  (T'&SIOA NE 'O')                                         00039000
.SETE    ANOP                                                           00040000
&ELAST   SETC  '00'                                                     00041000
         AIF   (&FOUND).GEN                                             00042000
&ELAST   SETC  '80'                                                     00043000
&FOUND   SETB  (T'&EOEA NE 'O')                                         00044000
         AIF   (&FOUND).GEN                                             00045000
         IHBERMAC 24 REQUIRED OPERAND NOT SPECIFIED                     00046000
         MEXIT                                                          00047000
.GEN     AIF   ('&MF' EQ 'L').LFORM                                     00048000
         CNOP  0,4                                                5/73  00049000
&NAME    BAL   1,&GNAME            BRANCH AROUND PARM LIST              00050000
         DC    A(&DCBAD)                DCB ADDRESS                     00051000
         AGO   .LIST1                                                   00052000
.LFORM   ANOP                                                           00053000
&NAME    DC    A(&DCBAD)                DCB ADDRESS                     00054000
.LIST1   AIF   (T'&EOEA EQ 'O').GENS    GENERATE LIST                   00055000
&LENGTH  SETC  '0'                                                      00056000
         AIF   ('&EOEA(2)' EQ '').GENE1                                 00057000
&LENGTH  SETC  '&EOEA(2)'                                               00058000
.GENE1   DC    AL1(1),AL3(&LENGTH)                                      00059000
         DC    X'&ELAST',AL3(&EOEA(1))  EOEA                            00060000
.GENS    AIF   (T'&SIOA EQ 'O').GENP                                    00061000
&LENGTH  SETC  '0'                                                      00062000
         AIF   ('&SIOA(2)' EQ '').GENS1                                 00063000
&LENGTH  SETC  '&SIOA(2)'                                               00064000
.GENS1   ANOP                                                           00065000
&FLAG    SETA  2                                                        00066000
         AIF   ('&PGFX' NE 'YES').GENS2                                 00067000
&FLAG    SETA  &FLAG+128                                                00068000
.GENS2   AIF   ('&SIOX' NE 'YES').GENS3                                 00069000
&FLAG    SETA  &FLAG+64                                                 00070000
.GENS3   AIF   ('&IOVR' NE 'YES').GENS4                                 00071000
&FLAG    SETA  &FLAG+32                                                 00072000
.GENS4   DC    AL1(&FLAG),AL3(&LENGTH)                                  00073000
         DC    X'&SLAST',AL3(&SIOA(1))  SIOA                            00074000
.GENP    AIF   (T'&PCIA EQ 'O').GENC                                    00075000
&LENGTH  SETC  '0'                                                      00076000
         AIF   ('&PCIA(2)' EQ '').GENP1                                 00077000
&LENGTH  SETC  '&PCIA(2)'                                               00078000
.GENP1   DC    AL1(3),AL3(&LENGTH)                                      00079000
         DC    X'&PLAST',AL3(&PCIA(1))  PCIA                            00080000
.GENC    AIF   (T'&CENDA EQ 'O').GENX                                   00081000
&LENGTH  SETC  '0'                                                      00082000
         AIF   ('&CENDA(2)' EQ '').GENC1                                00083000
&LENGTH  SETC  '&CENDA(2)'                                              00084000
.GENC1   DC    AL1(4),AL3(&LENGTH)                                      00085000
         DC    X'&CLAST',AL3(&CENDA(1)) CENDA                           00086000
.GENX    AIF   (T'&XENDA EQ 'O').GENA                                   00087000
&LENGTH  SETC  '0'                                                      00088000
         AIF   ('&XENDA(2)' EQ '').GENX1                                00089000
&LENGTH  SETC  '&XENDA(2)'                                              00090000
.GENX1   DC    AL1(5),AL3(&LENGTH)                                      00091000
         DC    X'&XLAST',AL3(&XENDA(1)) XENDA                           00092000
.GENA    AIF   (T'&AERR EQ 'O').ENDLIST                                 00093000
&LENGTH  SETC  '0'                                                      00094000
         AIF   ('&AERR(2)' EQ '').GENA1                                 00095000
&LENGTH  SETC  '&AERR(2)'                                               00096000
.GENA1   DC    AL1(6),AL3(&LENGTH)                                      00097000
         DC    X'80',AL3(&AERR(1)) AERR                                 00098000
.ENDLIST AIF   ('&MF' NE 'L').GENI        END OF LIST                   00099000
         MEXIT                                                          00100000
.GENI    ANOP                                                           00101000
&GNAME   DS    0H                                                       00102000
         AGO   .TESTREG                                                 00103000
.EFORM   ANOP                 EXECUTE FORM                              00104000
&NAME    IHBINNRA &MF(2)                                                00105000
.TESTREG AIF   ('&DCB'(1,1) NE '(').SVC TEST FOR NOT REG NOTATION       00106000
         ST    &DCB,0(0,1) DCB ADDRESS                                  00107000
.SVC     SVC   237 CHGAVT                                               00108000
         MEND                                                           00109000
