         MACRO                                                                  
&NAME    HWTL  &MESG,&MF=I                                                      
         GBLB  &IHBWTL                                                          
&IHBWTL  SETB  1                                                                
&NAME    WTO   &MESG,MF=&MF                                                     
&IHBWTL  SETB  0                                                                
         AIF   ('&MF' EQ 'L').END                                               
         LA    0,13                                                             
         SR    15,15                                                            
         SVC   254                                                              
.END     MEND                                                                   
