         MACRO                                                             1.   
&NAME    XDAR  &DCB                                            RTS 5/73    2.   
&NAME    IHBINNRA &DCB                                                     3.   
         LA    0,0                               LOAD XDAR FLAG REG 0      4.   
         SVC   252 XDAR                                                    5.   
         MEND                                                              6.   
