         MACRO                                                             1.   
&NAME    XSAR  &DCB,&ATINT,&NUMBER=                            RTS 1/74    2.   
&NAME    IHBINNRA &DCB,&ATINT                                              3.   
         AIF   ('&NUMBER' EQ '').SVC                                       4.   
         AIF   ('&NUMBER'(1,1) EQ '(').REG                                 5.   
         LA    15,&NUMBER                        LOAD NUMBER PARAMETER     6.   
         AGO   .REG1                                                       7.   
.REG     LR    15,&NUMBER                        LOAD NUMBER PARAMETER     8.   
.REG1    SLL   15,24                             SHIFT TO HI-ORD           9.   
         ALR   0,15                              ADD TO REG 0             10.   
.SVC     SVC   252 XSAR                                                   11.   
         MEND                                                             12.   
