         MACRO                                                           483.
&NAME    FEXIT &CODE,&NO                                                 484.
         LCLA  &A                                                        485.
&NAME    L     13,4(13)                                                  486.
         AIF   (T'&CODE EQ 'O').SK1                                      487.
         AIF   ('&CODE' EQ 'Y').SK2                                      488.
         L     11,64(13)                                                 489.
         USING AREA,11                                                   490.
.SK2     SR    1,1                                                       491.
         L     2,AINT                                                    492.
         ST    1,0(2,11)                                                 493.
.SK1     LM    14,12,12(13)                                              494.
         AIF   (T'&NO EQ 'O').SK3                                        495.
&A       SETA  &NO-4000                                                  496.
         LA    1,4000                                                    497.
         LA    1,&A.(1)                                                  498.
         BR    14                                                        499.
         MEXIT                                                           500.
.SK3     B     4(14)                                                     501.
         MEND                                                            502.
