         MACRO                                                           504.
&NAME    FSTART &DNAM,&REG,&LAB                                          505.
&NAME    BALR  15,0                                                      506.
         USING *,15                                                      507.
         SAVE  (14,12),,*                                                508.
         LA    2,72(13)                                                  509.
         ST    13,4(2)                                                   510.
         ST    2,8(13)                                                   511.
         LR    13,2                                                      512.
         USING AREA,11                                                   513.
         AIF   (T'&LAB EQ 'O').SK1                                       514.
         LA    2,&LAB                                                    515.
         L     3,AINT                                                    516.
         ST    2,0(3,11)                                                 517.
.SK1     AIF   (T'&REG EQ 'O').SK2                                       518.
         LR    &REG,11                                                   519.
         A     &REG,AFNC                                                 520.
         USING &DNAM,&REG                                                521.
         MEXIT                                                           522.
.SK2     A     11,AFNC                                                   523.
         USING &DNAM,11                                                  524.
         MEND                                                            525.
