         MACRO                                                                  
&NAME    EQF   &FLGNAME,&VALUE,&C=                                              
.*       MODIFIED, 1/79, JDN & RTS                                              
         GBLB  &$HIBAL                                                          
&BL      SETC  ' '                                                              
         AIF   (&$HIBAL).HIFLAGS                                                
&NAME    EQU   &VALUE&BL&C                                                      
         MEXIT                                                                  
.HIFLAGS FLAG  (&NAME,&FLGNAME..&VALUE,NZ)                                      
         AIF   ('&C' EQ '').MEXIT                                               
         MNOTE *,'&C'                                                           
.MEXIT   MEND                                                                   
