MAIL     TITLE 'WYLBUR''s Mail Facility'                                        
*******************************************************************             
*                                                                 *             
*     WYLBUR/370 - Release VI - Class I - Stanford Proprietary    *             
*                                                                 *             
*******************************************************************             
*                                                                               
*  Modification history:                                                        
*                                                                               
*     13-April-1995  M. Durket                                                  
*                                                                               
*     Changed the message: '<userid> is not accepting mail, mail not            
*     sent', to 'Mail not sent because mail is not being accepted               
*     by <userid>'. The reason is that in such messages, the                    
*     <userid> portion is concatenated with the SET MAIL 'message'              
*     field (via an ACALL SEGMID), resulting in some weird looking              
*     messages like: 'Prism general access <HQ.PRM> -- Please                   
*     respond to originator is not accepting mail, mail not sent.'              
*                                                                               
         HIBAL                                                                  
*                                                                               
WYLMAIL  CSECT                                                                  
MAIL     IDENT 4072                10:30:07 03/12/04  (SLP)                     
         REGS  FSR,,,,,,,BR,(WAR,LSR),PAR,PBR,CPR,CVR,SPR,RAR                   
*                                                                               
         SYSDEFN ,                 Define installation params                   
*                                                                               
         GBLA  &NAMESZ,&HOSTSZ,&USERSZ                                          
&NAMESZ  SETA  80                  Maximum length of a personal name            
&HOSTSZ  SETA  80                  Maximum length of a host name                
&USERSZ  SETA  80                  Maximum length of a userid                   
         SPACE 2                                                                
         PUSH  DSECTS                                                           
*                                                                               
         COPY  CONTROL                                                          
*                                                                               
         COPY  SYSDSNS                                                          
*                                                                               
         COPY  UTYPDEFN                                                         
*                                                                               
         COPY  RTNCODES                                                         
         TITLE 'DSECTS'                                                         
KWR      RECORD 'KWR'                                                           
*                                                                               
SIN      RECORD BEGIN                                                           
         COPY  SIN                                                              
         END                                                                    
*                                                                               
JCB      RECORD BEGIN                                                           
         COPY  JCB                                                              
         END                                                                    
*                                                                               
SEGCB    RECORD 'SEGCB'                                                         
*                                                                               
         POP   DSECTS                                                           
         TITLE 'SET WHOSTS Command'                                             
*box                                                                            
*                                                                               
*  Host Name Alias Information                                                  
*                                                                               
HAIL     RECORD BEGIN                                                           
HAILLINK DS    A                   Next HAIL ptr                                
HAILOLEN DS    X                   Old name length byte                         
HAILOLD  DS    0C                  Old name                                     
HAILNLEN DS    0X                  New name length byte                         
HAILNEW  DS    0C                  New name                                     
         END                                                                    
         SPACE 2                                                                
*box                                                                            
*                                                                               
*  Host Information                                                             
*                                                                               
HOST     RECORD BEGIN                                                           
HOSTLINK DS    A                   Next HOST ptr                                
*                                                                               
HOSTFLAG FLAG                                                                   
         FLAG  HOSTFBAT            - Batch job mail                             
         FLAG  HOSTFBIT            - Bitnet mail                                
         FLAG  HOSTFGTE            - Gateway mail                               
         FLAG  HOSTFBSMTP          - BSMTP header required                      
         FLAG  HOSTFSUNMAIL        - SUNMAIL varient of BSMTP                   
         FLAG  HOSTFTST            - Test address, hold mail                    
         FLAG  HOSTFERR            - Error text is present                      
*                                                                               
HOSTFLG2 FLAG                                                                   
         FLAG  HOSTFNDM            Don't use major domain name                  
*                                                                               
HOSTNAME DS    CL(&HOSTSZ)         Host name                                    
*                                                                               
HOSTGATE DS    CL35                Address of gateway for host                  
HOSTRELY DS    CL35                Address of relay node                        
HOSTACCT DS    CL5                 Mailbox account (UUUGG)                      
*                                                                               
HOSTTEXT DS    CL80                Error/warning text (when needed)             
         END                                                                    
         EJECT                                                                  
SHOSTWA  RECORD BEGIN                                                           
SHOSTFLG FLAG                                                                   
*                                                                               
SHAILQH  DS    A                   New HAIL queue head ptr                      
SHAILQT  DS    A                   New HAIL queue tail ptr                      
*                                                                               
SHOSTQH  DS    A                   New HOST queue head ptr                      
SHOSTQT  DS    A                   New HOST queue tail ptr                      
*                                                                               
SHAILOLD DS    2A                  Old alias name text len, loc                 
SHAILNEW DS    2A                  New alias name text len, loc                 
*                                                                               
SHOST    DS    XL(L'HOST)          Working HOST entry                           
*                                                                               
SHOSTLN  DS    CL(&LINESZ)         Working line buffer                          
         END                                                                    
         SPACE 2                                                                
*box                                                                            
*                                                                               
*  SETWHOST -- SET WHOSTS Command.  (Priv'd.)                                   
*                                                                               
*    Note:  This routine is also called after a successful save                 
*           of "HOSTS ACCOUNT GS.WYL".                                          
*                                                                               
SETWHOST GENTER                                                                 
         IF    (CPCMNM,NE,'W'),BEGIN  Entered after SAVE...                     
         VCALL INITCMD             Initialize                                   
         END                                                                    
*                                                                               
         ELSE  BEGIN               Command entry...                             
         IF    ^CPSFSPR,CVNVALID   Sorry pal                                    
         END                                                                    
*                                                                               
         XPUSH ,,L'SHOSTWA,PTR=R6                                               
         USING SHOSTWA,R6                                                       
         ST    R6,CPCWA                                                         
*                                                                               
         CLEAR SHOSTWA                                                          
         LA    R15,SHOSTQH-(HOSTLINK-HOST)                                      
         ST    R15,SHOSTQT         Dummy queue tail                             
         LA    R15,SHAILQH-(HAILLINK-HAIL)                                      
         ST    R15,SHAILQT         Dummy queue tail                             
*                                                                               
         LA    R0,SDSNHOSA         Want the SYSA hosts dsn                      
         IF    CVFRLG,'LA R0,SDSNHOSR'  RLG hosts dsn                           
         IF    (CVMACHID,EQ,'SYSC '),'LA R0,SDSNHOSC'  SYSC hosts               
         IF    (CVMACHID,EQ,'SYSD '),'LA R0,SDSNHOSD'  SYSD hosts               
         IF    (CVMACHID,EQ,'SYSH '),'LA R0,SDSNHOSH'  SYSH hosts               
         VCALL EXIT0               LOCAL exit - format system dsname            
         OSCINIT (R1),(R0)                                                      
         VCALL ZODSNM                                                           
         OSCAN L:=V(DSNPRT)                                                     
         VCALL ZSNFIN              Set up DSNWA                                 
*                                                                               
         SET   CPLFLG1.CPFALL                                                   
         SET   CPFRDEXT                                                         
         VCALL ZDETRNG                                                          
*                                                                               
         VCALL EXTOPEN             Open the file                                
         IF    (R15,NZ),CVNEXT                                                  
*                                                                               
         L     R15,SHOSTWRK                                                     
         VCALL DESPOT              (Co-routine is SHOSTRTN)                     
*                                                                               
         VCALL EXTCLOSE            All done                                     
*-                                                                              
*-       Now do post-processing.                                                
*-                                                                              
         IF    (SHOSTQH,Z),BEGIN   Nothing there...                             
         IF    CVFINIT,EXIT                                                     
         TCCR                                                                   
         TSEG  'No hosts defined.',,CR                                          
         END                                                                    
*-                                                                              
*-       Make new host table the system default.                                
*-                                                                              
         L     R5,CVHOSTQH         Save old table ptr                           
         MVC   CVHOSTQH,SHOSTQH    Make new version available                   
*-                                                                              
*-       Release the old host table.                                            
*-                                                                              
         WHILE (R5,NZ),BEGIN       Freemain each entry...                       
         WITH  (HOST,R5)                                                        
         L     R4,HOSTLINK                                                      
*                                                                               
         CLEAR HOST                (Neatness)                                   
         FREEMAIN R,A=(R5),LV=L'HOST  Release host table entry                  
*                                                                               
         LR    R5,R4                                                            
         END                                                                    
*-                                                                              
*-       Make new host alias table the system default.                          
*-                                                                              
         L     R5,CVHAILQH         Save old table ptr                           
         MVC   CVHAILQH,SHAILQH    Make new version available                   
*-                                                                              
*-       Release the old host alias table.                                      
*-                                                                              
         WHILE (R5,NZ),BEGIN       Freemain each entry...                       
         WITH  (HAIL,R5)                                                        
         L     R4,HAILLINK                                                      
*                                                                               
         CLEAR HAIL                (Neatness)                                   
         FREEMAIN R,A=(R5),LV=L'HAIL  Release host alias table entry            
*                                                                               
         LR    R5,R4                                                            
         END                                                                    
*                                                                               
         B     CVNEXT                                                           
         DROP  SHOSTWA,BR                                                       
*                                                                               
         DS    0F                                                               
SHOSTWRK DC    AL1(DESRTRN+LXCATRTN+UNPRST),AL3(SHOSTRTN)                       
         EJECT                                                                  
*box                                                                            
*                                                                               
*  SHOSTRTN -- Co-routine to process lines from the HOSTS file.                 
*                                                                               
*    On entry:                                                                  
*      R1,R0 - line loc, len                                                    
*                                                                               
SHOSTRTN XENTER R2,R8,,LOCAL                                                    
         L     R6,CPCWA                                                         
         USING SHOSTWA,R6                                                       
*                                                                               
         LA    R5,SHOST                                                         
         USING HOST,R5                                                          
*                                                                               
         SET   CPSCNFLG.CPFRTNER                                                
         MVC   CPSCNERT,=A(SHOSTXIT)  Go here if a scan error                   
*                                                                               
         CEIL  R0,L'SHOSTLN                                                     
         LR    R15,R0                                                           
         MOVE  R15,SHOSTLN,@R1                                                  
         OSCINIT SHOSTLN,(R0)      Input line                                   
         SET   CPFSNSEP            Set scan flag to allow "-"s                  
*                                                                               
SHOSTSCN OSCAN SHOSTPRT            Look for options                             
         B     SHOSTXIT                                                         
*                                                                               
*                                                                               
SAILNM   VCALL DEQUOTE             Dequote string if quoted                     
         STM   R0,R1,SHAILOLD      Save old name len, loc                       
         CEIL  R0,&HOSTSZ          Not too long                                 
         LR    R2,R0                                                            
         OSCAN                                                                  
         VCALL DEQUOTE             Dequote string if quoted                     
         CEIL  R0,&HOSTSZ          Not too long                                 
         STM   R0,R1,SHAILNEW      Save new name len, loc                       
         AR    R2,R0                                                            
         LA    R2,@R2+4+1+1        Length of HAIL entry                         
         GETMAIN R,LV=(R2)         Get a new HAIL entry                         
         LR    R3,R1                                                            
         WITH  (HAIL,R3),BEGIN                                                  
         CLEAR HAIL                                                             
*                                                                               
         L     R15,SHAILQT                                                      
         WITH  (HAIL,R15),'ST R3,HAILLINK'  Link up new entry                   
*                                                                               
         ST    R3,SHAILQT          Save new queue tail                          
*                                                                               
         LM    R1,R2,SHAILOLD                                                   
         CEIL  R1,255              Not too long                                 
         STC   R1,HAILOLEN         Save old host name length                    
         MOVE  R1,HAILOLD,@R2      Save old host name text                      
*                                                                               
         LA    R15,HAILOLD                                                      
         A     R15,SHAILOLD        New host name text starts here               
         LM    R1,R2,SHAILNEW                                                   
         CEIL  R1,255                                                           
         STC   R1,@R15             Save new host name length                    
         MOVE  R1,@R15+1,@R2       Save new host name text                      
         END                                                                    
         B     SHOSTSCN                                                         
*                                                                               
*                                                                               
SHOSTNM  CLEAR HOST                                                             
         MVC   HOSTNAME,CVBLANKS                                                
         LR    R15,R0                                                           
         CEIL  R15,L'HOSTNAME                                                   
         MOVE  R15,HOSTNAME,@R1    Save host name                               
         BR    RAR                                                              
*                                                                               
SHOSTGTE SET   HOSTFGTE            Gateway defined                              
         MVC   HOSTGATE,CVBLANKS                                                
         LR    R15,R0                                                           
         CEIL  R15,L'HOSTGATE                                                   
         MOVE  R15,HOSTGATE,@R1    Save gateway address                         
         BR    RAR                                                              
*                                                                               
SHOSTRLY LABEL ,                                                                
         MVC   HOSTRELY,CVBLANKS   Clear relay address                          
         LR    R15,R0                                                           
         CEIL  R15,L'HOSTRELY                                                   
         MOVE  R15,HOSTRELY,@R1    Save relay address                           
         BR    RAR                                                              
*                                                                               
*                                                                               
SHOSTACC IF    ((R0,EQ,6),AND,(@R1+2,EQ,'.')),BEGIN  Valid acct...              
         MVC   HOSTACCT(3),@R15+3  uuu                                          
         MVC   HOSTACCT+3(2),@R15  gg                                           
         END                                                                    
         BR    RAR                                                              
*                                                                               
SHOSTBAT SET   HOSTFBAT            Batch job mail                               
         BR    RAR                                                              
*                                                                               
SHOSTBIT SET   HOSTFBIT            Bitnet mail                                  
         BR    RAR                                                              
*                                                                               
SHOSTBSM SET   HOSTFBSMTP          BSMTP header required                        
         BR    RAR                                                              
*                                                                               
SHOSTNFL SET   HOSTFBSMTP+HOSTFSUNMAIL  BSMTP and SUNMAIL                       
         BR    RAR                                                              
*                                                                               
SHOSTTST SET   HOSTFTST            Test address                                 
         BR    RAR                                                              
*                                                                               
SHOSTNDM SET   HOSTFNDM            Strip major domain name from addr            
         BR    RAR                                                              
*                                                                               
SHOSTERR LENTER                                                                 
         SET   HOSTFERR            This is an error                             
         VCALL DEQUOTE             Dequote string                               
         MVC   HOSTTEXT,CVBLANKS   Initialize command area                      
         LR    R15,R0                                                           
         CEIL  R15,L'HOSTTEXT                                                   
         MOVE  R15,HOSTTEXT,@R1    Save command text                            
         LEXIT                                                                  
*                                                                               
SHOSTEND GETMAIN R,LV=L'HOST                                                    
         LR    R2,R1               Newly getmained HOST entry ptr               
         MOVEL @R2,SHOST,L'HOST    Save new HOST entry                          
         L     R15,SHOSTQT                                                      
         WITH  (HOST,R15),'ST R2,HOSTLINK'  Link us to last entry               
         ST    R2,SHOSTQT                                                       
         B     SHOSTSCN                                                         
*                                                                               
SHOSTXIT CLEAR CPSCNFLG.CPFRTNER                                                
         XEXIT                                                                  
         DROP  HOST,SHOSTWA,BR                                                  
         SPACE 2                                                                
SHOSTPRT OSCKW ALIAS,SAILNM,(A,P)                                               
         OSCKW HOST,SHOSTNM,(A,P)                                               
         OSCKW BATMAIL,SHOSTBAT,A                                               
         OSCKW BITMAIL,SHOSTBIT,A                                               
         OSCKW GATEMAIL,SHOSTGTE,(A,P)                                          
         OSCKW RELAY,SHOSTRLY,(A,P)                                             
         OSCKW BSMTP,SHOSTBSM                                                   
         OSCKW SUNMAIL,SHOSTNFL                                                 
         OSCKW TEST,SHOSTTST                                                    
         OSCKW NODOMAIN,SHOSTNDM                                                
         OSCKW ACCOUNT,SHOSTACC,(A,P)                                           
         OSCKW ERROR,SHOSTERR,(A,P)                                             
         OSCKW END,SHOSTEND                                                     
         OSCKW                                                                  
         EJECT                                                                  
*box                                                                            
*                                                                               
*  ALIASCHK -- Routine to convert an alias for a host to the actual             
*    host name.                                                                 
*                                                                               
*    On entry:                                                                  
*      R15 - host name ptr (&HOSTSZ bytes long)                                 
*                                                                               
*    On exit, R15 (and cc):                                                     
*      0 - no match (not an alias)                                              
*      4 - it was an alias; the host name passed on entry is updated            
*            with the alias name.                                               
*                                                                               
ALIASWA  RECORD BEGIN                                                           
ALIASNM  DS    CL(&HOSTSZ)         Working host name                            
         END                                                                    