INLI     TITLE 'INLINE--SYNTAX CHECKER FOR BASIC'
         MACRO
&NAME    STORI &CODE
&NAME    AH    INLRC,&CODE         FORM HALFWORD
         STH   INLRC,0(INLRO)      STORE IN OUTPUT STRING (INFIX)
         LA    INLRO,2(INLRO)      ADVANCE INFIX PTR
         MEND
*
         MACRO
&LABEL   INLERR &XX
&LABEL   LA    INLRER,INLERN&XX
         B     INLERROR
         SPACE 1
         MEND
*
         MACRO
&LABEL   SETTABL &VAL,&COD1,&COD2,&COD3,&COD4
&LABEL   LA    INLRWORK,INLSEQTB   COMPUTE ADDR OF TABLE ROW
         LA    INLRLINK,INLXDIM2*INLX&COD1  TO BE CHANGED
         AR    INLRLINK,INLRWORK
         LM    R0,R1,INL&VAL       PICK UP NEW SETTING
         STM   R0,R1,0(INLRLINK)   AND STORE IN SEQUENCE TABLE
         AIF   (K'&COD2 EQ 0).END
         LA    INLRLINK,INLXDIM2*INLX&COD2
         AR    INLRLINK,INLRWORK
         STM   R0,R1,0(INLRLINK)
         AIF   (K'&COD3 EQ 0).END
         LA    INLRLINK,INLXDIM2*INLX&COD3
         AR    INLRLINK,INLRWORK
         STM   R0,R1,0(INLRLINK)
         AIF   (K'&COD4 EQ 0).END
         LA    INLRLINK,INLXDIM2*INLX&COD4
         AR    INLRLINK,INLRWORK
         STM   R0,R1,0(INLRLINK)
.END     MEND
*
         GBLA  &MAXLITS      MAX SIZE OF LITERAL POOL IN BYTES
INLINE   CSECT
         TITLE 'INLINE'
**********************************************************************
**********************************************************************
***************************** INLINE ROUTINE *************************
**********************************************************************
**********************************************************************
*   PURPOSES:
*             1.  TO CHECK AN INPUT BASIC STATEMENT FOR CORRECT SYNTAX.
*                 IF THE SYNTAX IS CORRECT,
*
*             2.  TO CONVERT THE BASIC STATEMENT INTO A SERIES OF HALF-
*                 WORD CODED ELEMENTS.  IN GENERAL, EACH INTEGRAL ITEM
*                 IN THE STATEMENT--SUCH AS A VARIABLE NAME, A KEYWORD,
*                 OR A CONSTANT--IS CONVERTED INTO A CORRESPONDING
*                 HALFWORD.
*
*              ---IF THE STATEMENT IS SYNTACTICALLY INCORRECT, THE SCAN
*                 STOPS AND THE ERROR MESSAGE ROUTINE IS CALLED WITH A
*                 CODE INDICATING THE ERROR.
*
*
*
*   INPUT:
*             REGISTER 1 POINTS TO AN 83-WORD PARAMETER/WORK AREA WITH
*             THE FOLLOWING FORMAT:
*
*                  WORD 1 OF THE PARAM/WORK AREA POINTS TO A BASIC
*                       STATEMENT WITH THE BLANKS SQUEEZED OUT; END OF
*                       STATEMENT IS INDICATED BY A BLANK.
*
*                       THE ENTIRE INPUT STRING IS IN EBCDIC EXCEPT FOR
*                       FOR FIRST WORD; THE FIRST HALF OF THIS WORD
*                       CONTAINS THE LINE NUMBER IN BINARY AND THE
*                       SECOND HALF IS RESERVED FOR FUTURE USE.
*
*                  WORD 2 POINTS TO THE OUTPUT AREA WHERE 'INLINE' IS
*                       TO PUT THE TRANSLATED STMT, ALONG WITH ITS
*                       CONSTANTS (IF ANY).
*
*                  WORD 3 CONTAINS THE NUMBER OF CONSTANTS CURRENTLY
*                       IN THE NUMERICAL CONSTANT TABLE FOR THIS
*                       USER.
*
*                  WORD 4 CONTAINS THE NUMBER OF CONSTANTS CURRENTLY
*                       IN THE STRING CONSTANT TABLE FOR THIS USER.
*
*                  THE REMAINING 79 WORDS ARE USED FOR WORK AREA;
*                       CERTAIN OF THESE MUST BE INITIALIZED BEFORE THE
*                       FIRST CALL TO 'INLINE'.
*
*             THE WORD 'INLCNPTR' IN INLINE'S BUFFER HAS BEEN INIT-
*             IALIZED BY THE CONTROL PROGRAM TO POINT TO THE PLACE
*             WHERE INLINE SHOULD STORE CONSTANTS FOR THE STATEMENT.
*             (THIS IS DONE BY THE CONTROL PROGRAM SINCE BUFFER LENGTHS
*             DIFFER IN THE BATCH & TIME SHARING VERSIONS AND THE CON-
*             TROL PROGRAM IN EACH CASE KNOWS WHICH VERSION APPLIES
*             WHEREAS INLINE DOES NOT.)
*
*
*   OUTPUT:
*             1.  A STRING OF HALFWORDS, EACH OF WHICH CORRESPONDS TO
*                 AN INPUT ELEMENT--FOR EXAMPLE, THE KEYWORD 'LET'
*                 BECOMES ONE HALFWORD.
*
*                  EACH HALFWORD REPRESENTS A LABEL (LINE NUMBER),
*                  A KEYWORD, AN OPERATOR, AN OPERAND, OR
*                  PUNCTUATION.
*
*                  THE FIRST HALFWORD IS ALWAYS THE LINE NUMBER (IN
*                  BINARY) AND THE SECOND HALFWORD IS ALWAYS THE
*                  KEYWORD.  THE LENGTH OF THE CODED STRING (INCLUD-
*                  ING THE END SYMBOL BUT NOT INCLUDING THE CONSTANTS)
*                  IN BYTES IS PLACED IN THE HALFWORD PRECEDING THE
*                  LINE NUMBER.
*
*                  IF THE STATEMENT CONTAINS NUMERICAL OR STRING CON-
*                  STANTS, THEY ARE PLACED IN THE "CONSTANT AREA",
*                  WHICH BEGINS 144 BYTES PAST THE BEGINNING OF THE
*                  CODED OUTPUT LINE.
*
*                       THE FORMAT FOR EACH CONSTANT IS AS FOLLOWS:
*                        THE WORD PRECEDING THE CONSTANT TELLS
*                        (1) WHERE IN THE CODED OUTPUT LINE THE CON-
*                        STANT BELONGS (IN ITS FIRST HALFWORD) AND
*                        (2) IDENTIFIES THE CONSTANT TYPE (IN ITS
*                        SECOND HALFWORD)--A'4' INDICATES NUMERICAL
*                        CONSTANT AND A '16' INDICATES A STRING CON-
*                        STANT.
*
*                        THE CONSTANT ITSELF COMES NEXT AND OCCUPIES
*                        4 BYTES IF A NUMERICAL CONSTANT & 16 BYTES
*                        IF A STRING CONSTANT.
*                        THE LAST BYTE OF THE STRING CONSTANT GIVES
*                        ITS ACTUAL LENGTH IN BYTES.  THIS LENGTH MUST
*                        ALWAYS BE LESS THAN 16 BYTES; NULL STRINGS
*                        ARE O.K.
*
*                       THE LAST CONSTANT IS FOLLOWED BY A WORD SET TO
*                       ZERO.
*
*
*             2.  UPON RETURN FROM 'INLINE' TO CALLER,
*
*                  -------------------         -----------
*
*                       -1                  GOOD LINE, CONTINUE
*                        0                  BAD LINE, IGNORE
*                        1                  GOOD LINE, LOGICAL END OF
*                                           PROGRAM (I.E., "END" STMT)
*                        2                  GOOD LINE, "DEF" STMT
*                        3                  GOOD LINE, "DIM" STMT
*                        4                  -DELETE LINE-
*                        5                  GOOD LINE, IS ONE OF THE
*                                           FOLLOWING STMT TYPES WHICH
*                                           CAN HAVE NO CONSTANTS:
*                                             GOSUB, RETURN,STOP,
*                                             RESTORE, NEXT, GOTO,
*                                             DUMP, PAUSE, REM, DATA
*                        6                  "DEFINE FILE" STMT
*                                                                     *
*                                                                     *
*   EXTERNAL ROUTINES CALLED:
*             CONVERT CALLED TO CONVERT EBCDIC NUMBER TO FL. PT.
*             RUNERR  CALLED WHEN 'INLINE' FINDS ERRONEOUS SYNTAX
*                     TO SEND AN APPROPRIATE ERROR MESSAGE TO THE USER.
*
*
*                                                                     *
*
*
*   ATTRIBUTE:
*             'INLINE' IS REENTRANT:  ALL AREAS WHICH ARE MODIFIED ARE
*             LOCATED IN THE DSECT 'INLDSECT' WHICH IS MAPPED ONTO THE
*             PARAM/WORK AREA INPUT TO THE ROUTINE.
*
*             NOTE:  'INLINE' DOES MODIFY THE INPUT STRING SO THE
*             SAME STRING CANNOT BE GIVEN AS INPUT MORE THAN ONCE.
*
*
*   METHOD:
*             FIRST 'INLINE' DETERMINES WHAT TYPE OF STATEMENT IT HAS
*             BEEN GIVEN BY EXAMINING THE FIRST 3 CHARACTERS.  (IF THE
*             FIRST 3 CHARACTERS DO NOT SPELL ANY OF THE STMT TYPES,
*             THE STMT IS ASSUMED TO BE AN ASSIGNMENT STMT--'LET'.)
*
*             THEN, BASED ON THE KNOWN SYNTACTIC STRUCTURE OF THAT
*             PARTICULAR STATEMENT (REFER TO A DESCRIPTION OF STANFORD
*             BASIC IN BACKUS NORMAL FORM), 'INLINE' LOOKS FOR THE
*             APPROPRIATE SUCCESSION OF COMPONENTS.  (THIS SCAN IS NOT
*             TABLE-DRIVEN AS WITH MANY STATEMENT ANALYZERS BUT RATHER
*             "CODE-DRIVEN".)
*
*             'INLINE' CALLS UPON VARIOUS SMALL INTERNAL UTILITY ROUT-
*             INES TO RECOGNIZE AND ISOLATE SUCH STMT COMPONENTS AS
*             LINE NUMBERS, SIMPLE VARIABLE NAMES, ARRAY NAMES, AND
*             STRING CONSTANTS.  (IT CALLS UPON THE EXTERNAL ROUTINE
*             'CONVERT' TO SCAN NUMERICAL CONSTANTS.)
*
*             'INLINE' CALLS UPON ITS ONE MAJOR INTERNAL ROUTINE, THE
*             EXPRESSION HANDLER ('INLXH') TO SCAN ARITHMETIC EXPRESS-
*             IONS.
*
*                  THE EXPRESSION HANDLER IS TABLE-DRIVEN: IT MAKES A
*                  LEFT-TO-RIGHT SCAN OF THE INPUT STRING, EXAMINING
*                  TWO CONSECUTIVE ELEMENTS AT A TIME.  'INLXH' DETER-
*                  MINES WHETHER THE SECOND ELEMENT CAN FOLLOW THE
*                  FIRST BY REFERENCING A PRE-SET "SEQUENCE ACCEPT-
*                  ABILITY" TABLE.  THIS TABLE, FOR EXAMPLE, WILL TELL
*                  'INLXH' THAT "A+" IS LEGAL WHILE "SIN+" AND "-+"
*                  ARE NOT.
*
*                  'INLXH' MAINTAINS A SPECIAL STACK ('INLXSTAK') TO
*                  KEEP TRACK OF THE LEVELS OF PARENTHESES AND TO TELL
*                  WHEN COMMAS ARE LEGAL (I.E., WHEN THE SCAN IS IN A
*                  SUBSCRIPT).
*                  FOR EXAMPLE, THIS STACK WILL ENABLE 'INLXH' TO DE-
*                  TECT THE FOLLOWING FAULTY CONSTRUCTS:
*
*                       "SIN(X(I,J)"    --MISSING CLOSE PARENTHESIS
*                       "A)B(I,J))"     --MISSING OPEN PARENTHESES
*                       "B(I,INT(J,L))" --MISPLACED COMMA (THE FUNCTION
*                                         'INT' CAN HAVE ONLY 1 ARG.)
*
*                  BEFORE A STATEMENT HANDLER IN 'INLINE' CALLS
*                  'INLXH', IT TELLS 'INLXH' WHAT ELEMENTS ARE LEGAL
*                  TERMINATORS FOR THE ARITHMETIC EXPRESSION TO BE
*                  SCANNED.  CONSIDER, FOR EXAMPLE, 2 DIFFERENT STATE-
*                  MENT TYPES:  AN "IF" STATEMENT AND A "DEFINE
*                  FUNCTION" STMT.  SYNTACTICALLY,
*
*                   <IF STMT> ::= IF <EXPR><RELATION-OP><EXPR> THEN
*                                 <LINE NUMBER>
*                   <DEF STMT>::= DEFFN<LETTER>(<SIMPLE VAR>) = <EXPR>
*
*                  BEFORE CALLING 'INLXH' TO EXAMINE AN EXPRESSION IN
*                  AN "IF" STATEMENT, 'INLINE' SETS <RELATION-OP> AND
*                  "THEN" AS LEGAL TERMINATORS TO THE EXPRESSION,
*                  WHEREAS IT SETS BLANKS AS THE ONLY LEGAL TERMIN-
*                  ATORS WHEN CALLING 'INLXH' TO EXAMINE AN EXPRESSION
*                  IN A "DEFINE FUNCTION" STMT.  THIS SETTING OF TERM-
*                  INATORS IS DONE THROUGH THE "SEQUENCE ACCEPTABILITY"
*                  TABLE; FOR A MORE DETAILED EXPLANATION, REFER TO THE
*                  DESCRIPTION OF 'INLXH' PRECEDING THAT ROUTINE.
*
*
*   STRUCTURE AND BASE REGISTER CONVENTIONS:
*
*             THE CODE IS LAID OUT IN THE FOLLOWING ORDER:
*
*                      CODE                   COVERED BY BASE REGISTER
*                      ----                   ------------------------
*                 1. 'INLINE' PROPER                    10 & 11
*                 2. CONSTANTS FOR BOTH                 11
*                    'INLINE' & 'INLXH'
*                    (MOST EQU'S ARE HERE)
*                 3. SMALL UTILITY ROUTINES             11
*                    A. CODE STORING ROUTINES FOR
*                       GROUPS 2, 3, 4, & 5
*                    B. COMPOUND "IF" STMT TEST
*                    C. INLINTDM & INLINTLN--INTEGER
*                       HANDLER FOR DIM, GOTO, GOSUB,
*                       & IF STMT HANDLERS.
*                    D. INLETTER--ARRAY NAME RECOGNIZER
*                    E. INLLORL$--STRING ARRAY RECOGNIZER
*                    F. INLSIMVR--SIMPLE VARIABLE NAME
*                       RECOGNIZER
*                    G. INLTRLD--TRANSLATES SIMVAR
*                       NAMES TO INTERNAL CODE
*                    H. INLSTRNG--STRING CONSTANT
*                       RECOGNIZER
*                    I. INLERROR--SETS UP CALL TO
*                       EXTERNAL ROUT. 'RUNERR' WITH
*                       ERROR CODE
*                 4. LITERAL POOL FOR ALL OF 'INLINE'   11
*                 5. 'INLXH'--EXPRESSION HANDLER        10
*                 6. 'INLXTT'--TABLE LOOK-UP ROUT.      10
*                    FOR 'INLXH'
*                 7. 'INLDSECT'--LAYOUT OF INLINE'S     12
*                    PARAM/WORK AREA
*
*                 NOTE:  INLRBAS1 EQU   10
*                        INLRBAS2 EQU   11
*                        INLRDBAS EQU   12
*
*
*   LIMITATIONS IMPOSED UPON 'INLINE' BY THIS STRUCTURE:
*             1.   THE CODE IN ITEMS 1 THROUGH 4 (ABOVE) MUST OCCUPY
*                  FEWER THAN 2000 (HEX) BYTES, BECAUSE ONLY 2 BASE
*                  REGISTERS ARE AVAILABLE TO COVER IT.  THIS SHOULD
*                  NOT POSE A PROBLEM AS THERE ARE CURRENTLY (7/18/68)
*                  SOME 2000 (HEX) MINUS 1A50 (HEX) = 5B0 (HEX) BYTES
*                  TO SPARE.
*
*             2.   'INLXH' AND 'INLXTT' MUST BE COVERED BY 1 BASE REG
*                  --NO PROBLEM, SINCE THE SIZE OF THESE 2 ROUTINES
*                  COMBINED IS APPROXIMATELY 4B2 (HEX) BYTES.
*
*
*                                                                     *
********************NAMING CONVENTIONS****************************
*
*        IN GENERAL, THE FOLLOWING CONVENTIONS ARE USED:
*              SYMBOLS USED BY 'INLINE' PROPER BEGIN WITH 'INL'
*              SYMBOLS USED BY THE EXPRESSION HANDLER BEGIN WITH
*                              'INLX'
*              SYMBOLS USED BY STRING SCAN ROUTINE BEGIN WITH 'INLS'
*              SYMBOLS DENOTING REGISTERS BEGIN WITH 'INLR'
*
         EJECT
***********************HALFWORD CODE CONVENTIONS******************
*
*   A LINE NUMBER IS GIVEN IN ITS BINARY EQUIVALENT.  IDENTIFICATION
*                 IS SOLELY BY CONTEXT.
*
*             1.  Symbol table designations:
*                   A  - Z     -   1000 - 1019
*                   A0 - Z9    -   2000 - 2103
*                   A$ - Z$    -   3000 - 3019
*                   NUMBER CONS    6000 - 6XXX
*                   STRING CONS-   7000 - 7XXX
*                   FNA- FNZ   -   B000 - B019
*
*             E.g.  ----------------
*                   0011000000000100
*                   ----------------  in the operand field points
*             to the fifth entry in table STSYM (A$-Z$)--i.e., E$.
*
         EJECT
*             2.  Keyword, function, operator, and punctuation
*                 designations:
*
*               A0xx                  0Bxx                0Cxx
*
*               0   sin            0   let                 0   <
*               1   cos            1   if                  1   >
*               2   tan            2   for                 2   <=
*               3   atn            3   gosub               3   >=
*               4   log            4   return              4   <>
*               5   exp            5   dim                 5   =r
*               6   SQR            6   END                 6   =
*               7   RND            7   stop                7   +
*               8   abs            8   RESTORE             8   -
*               9   SGN            9   read                9   *
*              10   INT (+BELOW)  10   write              10   /
*                                 11   print              11   **
*               90xx              12   input              12   (
*                                 13   mat                13   (s
*               0   zer           14   def                14   )
*               1   con           15   next               15   ,s
*               2   idn           16   go to
*               3   trn           17   dump
*               4   inv           18   pause              0Dxx
*               5   NRM           19   rem
*               6   EIG
*                                 20   -delete-
*                                 21   data
*                                 22   syntax error        0   then
*                                 23   computed go to      1   step
*                                 24   CLEAR DATA          2   to
*                                 25   DEFINE FILE         3   ,
*                                 26   PRINT USING         4   ;
*                                 27   : (IMAGE)           5   blank
*                                                          6   GOTO
*                                                          7   GOSUB
*+ A0XX
*        0B  PAT
*        0C  PDT
*        0D  PSX
*        0E  PSY
*        0F  PCH
*        10  PLT
*        11  DAT
*        12  CLK
*        13  LEN
*        14  CAT
*        15  LST
*        16  RST
*        17  NDX
*        18  NCH
*        19  CHN
*        1A  TAB
*
&MAXLITS SETA  132            MAX SIZE OF LITERAL POOL IN BYTES
         B     12(0,15)     BRANCH AROUND ID
         DC    AL1(6)
         DC    CL6'INLINE'  IDENTIFIER
         STM   14,12,12(13) SAVE REGISTERS
         LA    INLR2,72(R13)  SET UP PTR TO INLINE'S SAVE AREA
         ST    R13,4(INLR2)   PUT PTR TO CALLER'S SAVE AREA IN INLINE'S
*                             SAVE AREA
         ST    INLR2,8(R13)   PUT PTR TO INLINE'S SAVE AREA IN CALLER'S
*                             SAVE AREA
         LR    R13,INLR2      SET R13 TO POINT TO INLINE'S SAVE AREA
         BALR  INLRBAS1,0     SET UP BASE REG 1
         USING *,INLRBAS1,INLRBAS2
INLHERE  LA    INLRBAS2,2048(INLRBAS1)   SET UP BASE REG 2
         LA    INLRBAS2,2048(INLRBAS2)
         USING INLINARG,INLRDBAS
         LR    INLRDBAS,INLR1      LOAD DSECT BASE REG
         ST    INLRBAS1,INLSAVB1   SAVE A(INLHERE)
         L     INLRI,INLDIN  SET UP PTR TO INPUT BUFFER
         L     INLRO,INLDOUT SET UP PTR TO OUTPUT BUFFER
         L     INLRWORK,INLDCN  SAVE NUMBER OF CONSTANTS CURRENTLY
         STH   INLRWORK,INLCNSV  IN CONSTANT TABLES SO CAN RETRACE
         L     INLRWORK,INLDSCN  STEPS IN CASE OF SYNTAX ERROR
         STH   INLRWORK,INLSCNSV
         ST    INLRO,INLAINFX      SAVE ADDR OF INFIX
         LH    INLRWORK,0(INLRI)   MOVE LINE NUMBER
         STH   INLRWORK,0(INLRO)   TO OUTPUT STRING
         LA    INLRI,4(INLRI)      ADVANCE TO NEXT ELEMENT
         LA    INLRO,2(INLRO)      ADVANCE OUTPUT PTR
         MVI   INLSWUT2,X'00'    INITIALIZE 2-PART UTILITY SWITCH
INLHERE1 MVC   INLSPAC+3(1),0(INLRI)  MOVE FIRST CHAR FOR TESTING
         TR    INLSPAC+3(1),INLLETAB  EXAMINE FIRST CHARACTER
         CLI   0(INLRI),C':'
         BE    INLIMG             GO HANDLE IMAGE INPUT
         TM    INLSPAC+3,X'FF'        OF THE LINE; IS IT A LETTER?
         BO    INLER2                 IF NOT, ERROR
         SR    INLRWORK,INLRWORK   INITIALIZE FOUR
         ST    INLRWORK,INLSWCHS   ONE-BYTE SWITCHES
         NI    INLSWUT2,X'0F'      INITIALIZE FIRST 4 BITS OF SW
         L     INLRWORK,INLSPAC    COMPUTE INDEX IN ADDRESS TABLE
         LA    INLRLINK,INLKEYTB
         L     INLRLINK,0(INLRLINK,INLRWORK)  PICK UP ADDRESS
         BR    INLRLINK            BRANCH TO APPROPRIATE ROUTINE
**********************************************************************
******************* FIRST CHARACTER OF LINE IS ':' *******************
**********************************************************************
INLIMG   LA    INLRC,INLKIMG
         BAL   INLRLINK,INLSTOG3
         LA    INLRI,1(INLRI)
         TM    0(INLRI),X'7D'     CHECK FOR STRING CONSTANT
         BC    B'1110',INLIMG1    NO, GO CHECK SIMPLE STRING VAR
         BAL   INLRLINK,INLSTRNG    GO PROCESS STRING CONSTANT
INLIMG0  CLI   0(INLRI),C' '      SHOULD BE AT END NOW
         BE    INLRET1
         B     INLER29            IF NOT, ERROR
INLIMG1  BAL   INLRLINK,INLLORL$   CHECK FOR STRING VAR (SIMPLE)
         B     INLER36            ERROR, ONLY STRING VAR ALLOWED
         B     INLER36            ERROR, ONLY STRING VAR ALLOWED
         B     INLIMG0            GOT ONE, SHOULD BE DONE
         SPACE 3
**********************************************************************
****************** FIRST CHARACTER OF LINE IS A BLANK ****************
**********************************************************************
*                                            -------------------------
*-------------------------------------------<           -DELETE- STMT
*                                            -------------------------
INLBL1   LA    INLRC,INLKDEL  LOAD 'DELETE' CODE
         LA    INLR0,4      INDICATE 'DELETE' STMT TO CONTROL PROG
         B     INLSTO2
         SPACE 3
**********************************************************************
******************* FIRST CHARACTER OF LINE IS 'R' *******************
**********************************************************************
INLCR1   CLI   1(INLRI),C'E' IS CHAR+1 = 'E'?
         BNE   INLDELET      IF NOT, ASSUME DEFAULT 'LET'
         CLI   2(INLRI),C'M' IS IT 'REM'?
         BNE   INLRT2
*                                            -------------------------
*-------------------------------------------<              'REM' STMT
*                                            -------------------------
         BAL   INLRLINK,INLCIFT   GUARD AGAINST COMPOUND "IF" ERROR
         LA    INLRC,INLKREM LOAD 'REM'CODE
         B     INLSETRC         GO SET RETURN CODE
         SPACE 2
INLSTO   BAL   INLRLINK,INLSTOG3
INLRET1  SR    INLR0,INLR0   PUT '-1' IN REG. 0 TO INDICATE
         BCTR  INLR0,0       GOOD LINE,CONTINUE
INLRET1A LH    INLRWORK,INLEOL
         STH   INLRWORK,0(INLRO)   STORE END-OF-LINE CODE
         SPACE 1
         SR    INLRWORK,INLRWORK   STORE END-OF-CONSTANT-BUFFER
         L     INLRLINK,INLCNPTR   INDICATOR (A WORD=0)
         ST    INLRWORK,0(INLRLINK)
         LA    INLRO,2(INLRO)      ADV PTR PAST 'EOL' CODE
         L     INLRWORK,INLAINFX   COMPUTE LENGTH OF 'INFIX'
         SR    INLRO,INLRWORK      PROPER (NOT INCL. CONSTANTS)
         SH    INLRWORK,=H'2'      SET PTR TO ADDR OF INFIX MINUS 2
         STH   INLRO,0(INLRWORK)   STORE LENGTH
         SPACE
         CH    INLR0,=H'5'       WAS CODE 5 PRESET IN R0?
         BNE   INLRET1B          NO, BRANCH
         TM    INLSWUT2,X'0F'    COMPOUND "IF" STMT?
         BZ    INLRET1B          NO, BRANCH
         SR    INLR0,INLR0       RESET R0 TO INDICATE TO CONTROL
         BCTR  INLR0,0           PROGRAM LINE MAY CONTAIN CONSTANTS
         SPACE
INLRET1B L     R13,4(R13)          FETCH PTR TO CALLER'S SAVE AREA
         LM    R14,R15,12(R13)      RESTORE ALL REGS EXCEPT R0
         LM    R1,R12,24(R13)
         BR    R14                  RETURN
         SPACE
         SPACE 3
INLRT2   CLC   2(4,INLRI),=CL4'TURN'     'RETURN'?
         BNE   INLRT3
*                                            -------------------------
*-------------------------------------------<           'RETURN' STMT
*                                            -------------------------
         LA    INLRI,6(INLRI)    ADVANCE PAST STMT TYPE
         LA    INLRC,INLKRET LOAD 'RETURN' CODE
         SPACE
INLTEND  CLI   0(INLRI),C' '     IS THERE A BLANK FOLLOWING THE STMT
*                  TYPE?--THIS TEST IS USED FOR RETURN, STOP, RESTORE,
*                  DUMP, & PAUSE
         BNE   INLER29           ERROR IF NOT
         SPACE 2
INLSETRC LA    INLR0,5    SET RETURN CODE REG TO TELL CONTROL PROGRAM
*                         THIS STMT TYPE CAN HAVE NO CONSTANTS
         B     INLSTO2       STORE CODE FOR KEYWORD  AND RETURN
         SPACE 1
INLRT3   CLC   2(2,INLRI),=CL2'AD'   'READ'?
         BNE   INLRT4
*                                            -------------------------
*-------------------------------------------< 'READ' OR 'READ-I' STMT
*                                            -------------------------
         LA    INLRC,INLKREAD      LOAD 'READ'CODE
         BAL   INLRLINK,INLSTOG3        STORE HALFWORD CODE
         LA    INLRI,4(INLRI)      ADVANCE INPUT PTR TO NEXT ELEMENT
         OI    INLSW,INLZRD   SET SWITCH FOR READ OR READ-I STMT
         CLI   0(INLRI),C'('       READ-I STATEMENT?
         BNE   INLRDA
         LA    INLREGL,INLRDA
         SPACE
**********************************************************************
************* CODE TO EXAMINE (<EXPRESSION>,<SIMVAR>) & (<EXPRESSION>,
************* <SIMVAR>,<LINE NO.>) IN READ-I & WRITE-I STMTS **********
**********************************************************************
INLRIWI  LA    INLRC,INLLPA        LOAD '(' CODE
         BAL   INLRLINK,INLSTOG4              STORE IT
         LA    INLRI,1(INLRI)      ADV SCAN PTR
         BAL   INLRLINK,INLXH      GO SCAN EXPRESSION (THE VALUE OF THE
*                                  EXP IS TAKEN AS FILE IDENTIFIER)
         SETTABL ZERO,COM
         CLI   0(INLRI),C','       COMMA?
         BNE   INLER18             ERROR IF NOT
         LA    INLRC,INLCOMC       LOAD COMMA CODE
         BAL   INLRLINK,INLSTOG5
         LA    INLRI,1(INLRI)
         BAL   INLRLINK,INLSIMVR   LOOK FOR SIMVAR --RECORD NO.
         B     INLER31             ERROR RET
         TM    INLSW,INLZRD2       READ-I STMT?  (MAT OR OTHERWISE)
         BZ    INLRIWI1            NO, WRITE-I--BRANCH
         LA    INLRC,INLCOMC       LOAD COMMA CODE
         BAL   INLRLINK,INLSTOG5
         CLI   0(INLRI),C','       COMMA AFTER  SIMVAR?
         BNE   INLRIWI2            BRANCH IF NOT
         LA    INLRI,1(INLRI)      ADVANCE ONE CHARACTER
         SPACE
         BAL   INLRLINK,INLINTLN   GO EXAMINE LINE NUMBER
         SPACE
INLRIWI1 CLI   0(INLRI),C')'       CLOSE PAREN?
         BNE   INLER18             ERROR IF NOT
         LA    INLRC,INLRPA        LOAD ')' CODE
         BAL   INLRLINK,INLSTOG4              STORE IT
         LA    INLRI,1(INLRI)   ADVANCE SCAN PTR
         BR    INLREGL
         SPACE
INLRIWI2 SR    INLRLINK,INLRLINK   IF NO E.O.F. LINE NUMBER IN READ-I
         STH   INLRLINK,0(INLRO)   FORCE ZERO AS LINE NO.
         LA    INLRO,2(INLRO)
         B     INLRIWI1
         SPACE 2
INLRDA   SETTABL TERM,COM,BL       SET COMMAS AND BLANKS AS TERMINATORS
         SPACE 3
***********************************************************************
*************************** VARIABLE SCANNER **************************
********* --USED IN SCANNING LET, INPUT, READ, AND READ-I STATEMENTS **
********* (STRING LET IS HANDLED SEPARATELY) **************************
***********************************************************************
INLVRSC1 MVC   INLSPAC+3(1),0(INLRI)
         TR    INLSPAC+3(1),INLLTAB
         TM    INLSPAC+3,X'FF'     IS CHAR A LETTER?
         BO    INLRORIT
         L     INLRC,INLSPAC
INLVRSC9 CLI   1(INLRI),C'0'       IS CHAR+1 A DIGIT?
         BL    INLVRSC2            BR IF NOT
         CLI   1(INLRI),C'9'
         BH    INLVRSC2
         MH    INLRC,=H'10'        COMPUTE CODE FOR <LETTER><DIGIT>
         MVN   INLTEMP1+3(1),1(INLRI)
         A     INLRC,INLTEMP1
         STORI INLLDCD
         LA    INLRI,2(INLRI)      ADV PAST VAR NAME
         SPACE
INLVTERM TM    INLSW,INLZLET       LET ST?
         BZ    INLVRSC3            NO. BRANCH
         CLI   0(INLRI),C'='       YES. IS CHAR '='?
         BNE   INLER25             ERROR IF NOT
         SPACE 2
         LA    INLRC,INLEQ         LOAD '=' CODE IF SO
         BAL   INLRLINK,INLSTOG4              AND STORE IT
         LA    INLRI,1(INLRI)
         L     INLRWORK,INLEQCNT    OBTAIN NO. OF '=' SIGNS REMAINING
         BCTR  INLRWORK,0           IN LINE AND DECREMENT BY ONE
         ST    INLRWORK,INLEQCNT
         LTR   INLRWORK,INLRWORK    IS THAT ALL?
         BC    B'0010',INLVRSC1     NO, GO SCAN NEXT VARIABLE
         SETTABL ZERO,ELET         IF NO MORE '=' SIGNS, NEXT ELEMENT
*                                  MUST BE AN EXPRESSION--
         SETTABL TERM,BL           SET BLANKS AS ONLY TERMINATOR
         BAL   INLRLINK,INLXH      AND SCAN EXP.
INLVREST SETTABL ZERO,BL           RESTORE TABLE
         B     INLRET1             AND GO TERMINATE LINE
         SPACE 2
INLVRSC3 CLI   0(INLRI),C','       READ/INPUT--IS CHAR A COMMA?
         BNE   INLVRSC4
         LA    INLRC,INLCOMC       YES. LOAD COMMA CODE
         BAL   INLRLINK,INLSTOG5              AND STORE
         LA    INLRI,1(INLRI)      ADV TO NEXT VAR
         B     INLVRSC1            AND GO SCAN IT
         SPACE
INLVRSC4 CLI   0(INLRI),C' '       BLANK?
         BNE   INLER12             ERROR IF NOT
         SETTABL ZERO,COM          RESTORE TABLE PARTIALLY
         B     INLVREST            AND GO FINISH IT
         SPACE 2
INLVRSC2 CLI   0(INLRI),C'$'
         BNE   INLVRS1
         STORI INLL$CD
         B     INLVRS2
INLVRS1  STORI INLLCD              STORE <LETTER> CODE
INLVRS2  LA    INLRI,1(INLRI)      ADV PAST LETTER
         CLI   0(INLRI),C'('       IS VAR SUBSCRIPTED?
         BE    INLVRSC5            BR IF SO
         TM    INLSW,INLIRDRI      INPUT, READ, OR READ-I?
         BZ    INLVTERM            BR IF NOT
         CLI   0(INLRI),C'$'       YES. TEST FOR STRING VAR NAME
         BNE   INLVTERM            IF NOT, BR
         SH    INLRO,=H'2'         BACK UP SO WILL OVERWRITE LAST CODE
         L     INLRC,INLSPAC   RELOAD LETTER CODE
         STORI INLL$CD             STORE <LETTER>$ CODE IF SO
         LA    INLRI,1(INLRI)      ADV PAST '$'
         CLI   0(INLRI),C'('       IS THE STRING VAR SUBSCRIPTED?
         BNE   INLVRSC3            BR IF NOT