EXEC     TITLE 'BASIC COMPILER  -  EXECUTION PHASE    7/05/72'
         MACRO
&NAME    FIX   &FLOAT,&FIXED
&NAME    AU    &FLOAT,UNZERO
         STE   &FLOAT,AEXWORK
         L     &FIXED,AEXWORK
         LA    &FIXED,0(&FIXED)
         MEND
 SPACE 2
         MACRO
&Q       BIFEC &Q1            BRANCH IF EXECUTABLE CODE (MAY BE) SET UP
&Q       LTR   RCODE,RCODE
         BNM   &Q1
         MEND
 SPACE 2
         MACRO
&Q       BINEC &Q1        BRANCH IF NO EXECUTABLE CODE (MAY BE) SET UP
&Q       LTR   RCODE,RCODE
         BM    &Q1
         MEND
 SPACE 2
         MACRO
&Q       MVLA  &Q1
&Q       BINEC A&SYSNDX           BRANCH IF NO EXECUTABLE CODE
         STM   R14,R3,8(R13)      SAVE REGS.
         BAL   R14,MVLA
         DC    H'&Q1'
         LM    R14,R3,8(R13)      RESTORE REGS.
A&SYSNDX DS    0H
         MEND
 SPACE 2
         MACRO
&Q       SMLB  &Q1
&Q       BINEC A&SYSNDX           BRANCH IF NO EXECUTABLE CODE
         STM   R14,R3,8(R13)      SAVE REGS.
         BAL   R14,SMLB
         DC    H'&Q1'
         LM    R14,R3,8(R13)      RESTORE REGS.
A&SYSNDX DS    0H
         MEND
 SPACE 2
         MACRO
&Q       DEC
&Q       BINEC A&SYSNDX           BRANCH IF NO EXECUTABLE CODE
         STM   R14,R0,8(R13)
         BAL   R14,DLTR           DELETE IN-LINE CODE FOR THIS STATMNT.
         LM    R14,R0,8(R13)
A&SYSNDX DS    0H
         MEND
 SPACE 2
         MACRO
&Q       IMO
&Q       BINEC A&SYSNDX           BRANCH IF NO EXECUTABLE CODE
         STM   R14,R0,8(R13)
         BAL   R14,DLTR           TO DELETE ANY IN-LINE CODE
         BAL   R14,SETIMO         TO SET INTERPRETIVE MODE ONLY
         LM    R14,R0,8(R13)
A&SYSNDX DS    0H
         MEND
 SPACE 2
         MACRO
&Q       OPER  &Q1
&Q       SMLB  10
         LE    F0,0(,RX)
         LE    F2,0(,RY)
         &Q1   F0,F2
         B     TYPE03TL
         MEND
 SPACE 2
*PRINT OFF
 PRINT ON                                                          N001
         TITLE 'BASIC COMPILER  -  COMMENTS'
EXEC     CSECT
*************** RETURN MESSAGES ***************************************
*
*
NSTOP    EQU   4000    -STOP EXECUTED
NPAUSE   EQU   4001    -PAUSE EXECUTED
NEND     EQU   4002    -END OF EXECUTION
NRETFULL EQU   4003    -TOO MANY NESTED GOSUBS
NTEMPFUL EQU   4004    -TOO MANY NESTED DEFINED FUNCTIONS
NFORRFUL EQU   4005    -TOO MANY NESTED FOR LOOPS
NFORERR  EQU   4006    -NO CORRESPONDING FOR STATEMENT
NNEXTERR EQU   4007    -NO CORRESPONDING NEXT STATEMENT
NDEFNERR EQU   4008    -DEF FN MISSING
NMATDERR EQU   4009    -MATRIX RE-DEFINITION EXCEEDS ALLOCATED STORAGE
NINCONER EQU   4010    -INCONSISTENT USE OF SUBSCRIPTS
NLINEERR EQU   4011    -STATEMENT MISSING
NMATERR  EQU   4012    -INCOMPATIBLE DIMENSIONS IN A MATRIX COMPUT.
NSUBSERR EQU   4013    -SUBSCRIPT OUT OF RANGE
NSYNTERR EQU   4014    -EXECUTING A SYNTACTICALLY INCORRECT STMT
NDATANUL EQU   4015    -NO MORE DATA
NPRINTER EQU   4016    -PRINT ERROR
NWRITERR EQU   4018    -WRITE ERROR
NSIMPLE  EQU   4019    -VARIABLE MAY NOT BE BOTH SIMPLE &SUBSCRIPTED
NRETERR  EQU   4020    -NO CORRESPONDING GOSUB STATEMENT
NCOREFUL EQU   4021    -NO MORE CORE TO ALLOCATE ARRAYS
NENDERR  EQU   4022    -NOTHING TO EXECUTE
NRNDERR  EQU   4023    -ARGUMENT TO RND NOT A SIMPLE VARIABLE
NDATAERR EQU   4024    -INVALID STRING DATA IN A DATA STATEMENT
NATTENT  EQU   4025    -INTERRUPT
*
*
*************** EXITS TO CONTROL PROGRAM ******************************
*
*
MSTOP    EQU   0       -NORMAL RETURN (END OR STOP)
MPAUSE   EQU   4       -PAUSE RETURN
MUSERERR EQU   8       -USER ERROR
MSYSTERR EQU   12      -SYSTEM ERROR
*                       (CURRENTLY UNUSED)
MATTENT  EQU   16      -ATTENTION (TIME-SHARE), OR
*                       END-FILE ON INPUT (BATCH).
*
***********************************************************************
      EJECT
**************** PROGRAM DESCRIPTION **********************************
*
*
*              THE BASIC PROGRAM EXISTS IN THE FORM OF A
*              NUMBER OF TABLES WHICH WILL BE EXECUTED
*              INTERPRETIVELY.
*
*              EACH ENTRY IN THE LINES TABLE REPRESENTS A
*              BASIC STATEMENT.  THE EXECUTOR CAN
*              GIVE UP CONTROL AFTER ANY ONE
*              BASIC STATEMENT IS EXECUTED.
*
*              THE EXECUTOR MAY BE CALLED IN THE
*              FOLLOWING WAYS:
*
*              1) TO BEGIN EXECUTING A BASIC PROGRAM
*              AT THE FIRST STATEMENT.
*
*              2) TO BEGIN EXECUTING A BASIC PROGRAM
*              AT A PARTICULAR STATEMENT.
*
*              3) TO CONTINUE EXECUTING A BASIC PROGRAM
*              FROM WHENCE WE WERE INTERRUPTED.
*
*              4) TO EXECUTE STATEMENT 10000, WHICH IS
*              IMMEDIATE MODE FROM THE CONTROL PROGRAM IN
*              THE TIME-SHARING VERSION.
*
*              AFTER EACH BASIC STATEMENT IS COMPLETED, THE EXECUTOR
*              WILL CHECK THE ATTENTION BIT.  IF IT IS ON, IT
*              RETURNS TO THE CONTROL PROGRAM.
*
*              THE CONTROL PROGRAM CALLING THE INTERPRETER
*              WILL SET REGISTER 'USER' TO THE BASE OF THE
*              USER AREA.
*
*        INPUTS REQUIRED:
*
*              IF R0 IS ZERO, EXECUTION WILL BEGIN AT
*              THE FIRST STATEMENT.
*
*              IF R0 IS POSITIVE, EXECUTION WILL BEGIN
*              AT THE STATEMENT NUMBER IN R0.
*
*              IF R0 IS NEGATIVE, EXECUTION WILL BEGIN AT THE
*              STATEMENT FOLLOWING THIS ONE (AFTER COMPLEMENTING
*              IT).
*
*
*        THE BATCH CONTROL PROGRAM CALLS THE EXECUTOR IN THE FOLLOWING
*        WAY:
*
*              L    R11,VAREA            -BASE OF AREA
*              SR   R0,R0                -TO EXECUTE AT THE BEGINNING
*              L    R15,VEXEC            -ADDRESSIBILITY TO EXEC
*   CALLEXEC   EQU  *
*              BALR R14,R15              -CALL
*
*              B    NORMAL               -STOP OR END EXECUTED
*              B    PAUSE                -PAUSE EXECUTED
*              B    USERERR              -USER ERROR
*              B    SYSTERR              -SYSTEM ERROR
*              B    ATTENTION            -USER HIT ATTENTION
*
*   PAUSE      EQU  *
*              LCR  R0,R0                -COMPLEMENT THE STMT. #
*              B    CALLEXEC             -RESUME EXECUTION
*
*   VEXEC      DC   V(EXEC)
*   VAREA      DC   V(AREA)
*
*
*        THE EXECUTOR WILL SAVE AND RESTORE ALL REGISTERS EXCEPT
*        R0 AND R1.
*
************** ROUTINES CALLED ***************************************
*
*        REGISTER 0 IS THE CURRENT STATEMENT NUMBER
*        REGISTER 1 POINTS TO THE ARGUMENT LIST ON INPUT
*                   AND IS THE ERROR NUMBER ON OUTPUT.
*        REGISTER 14 IS THE ERROR RETURN POINT
*        REGISTER 14+4 IS THE NORMAL RETURN
*        REGISTER 15 IS THE ENTRY POINT
*
* (A)  INV     -     MAT A=INV(B)
*             OR     MAT A=INV(B,D1),
*             WHERE D1 IS THE DETERMINANT RETURNED IN F6.
*
*      1.   address of b
*      2.   address of a
*      3.    rows of a (=cols of a=rows   NOof b=cols of b)
*
* (B)  TRN     -     MAT A=TRN(B)
*
*      1.   address of b
*      2.   address of a
*      3.    rows of b (=cols of a)
*      4.    cols of b (=rows of a)
*
* (C)  MATM    -     MAT C=A*B
*
*      1.   address of b
*      2.   address of a
*      3.   address of c
*      4.    cols of b (=rows of a)
*      5.    cols of c (=cols of a)
*      6.    rows of c (=rows of b)
*
* (D)  LODR1   - TO DYNAMICALLY ALLOCATE AN ARRAY (IN R1)
*
* (E)  BINR    - TO FIND A STATEMENT NUMBER
*
* (F)  POWER   - TO EXPONENTIATE (F0**F2) INTO (F0)
*
* (G)  SIN
*
* (H)  COS
*
* (I)  TAN
*
* (J)  ATN
*
* (K)  LOG
*
* (L)  EXP
*
* (M)  SQR
*
* (N)  RND
*
* (0)  PRINT
*
* (P)  INPUT
*
* (Q)  DUMP
*
* (R)  RUNERR  - MESSAGE DISPATCHER
*
* (S)  READ (N,I,EOF)
*
* (T)  WRITE (N,I)
*
* (U)  NRM (A)  - TO DO A COLUMN NORMALIZATION OF MATRIX A.
*
* (V)  PAT     PLOT ATTACH
*
* (W)  PDT     PLOT DETACH
*
* (X)  PSX     PLOT SET X
*
* (Y)  PSY     PLOT SET Y
*
* (Z)  PCH     PLOT CHARACTER
*
* (AA) PLT     GENERAL PLOT MECHANISM
*
* (AB) EIG    -   MAT A=EIG(B)
*
*      1.  ADDRESS OF B
*      2.  ADDRESS OF A
*      3.  ROWS OF A (=COLS OF A=ROWS OF B=COLS OF B)
*
*
*      When an error occurs in any of these routines,
*  the return is made to the executor with general reg.
*  one containing the error code so the executor can call
*  the error handling routine.   For a normal exit return
*  is made to 4 bytes past the statement on the executor
*  which called it.
*
*  ! CALLING THE ERROR ROUTINE
*
*          LA   R1,NUMBER OF ERROR MESSAGE
*          L    15,=V(RUNERR)
*          BALR 14,15
*
*
*
*        LANGUAGE CONSIDERATIONS BASED ON IMPLEMENTATION:
*
*              1.  VARIABLES A-Z MUST BE USED CONSISTENTLY.
*                  (EITHER AS A SIMPLE VARIABLE, A SINGLY-
*                  DIMED VARIABLE, OR A DOUBLY DIMED VARIABLE).
*
*
*              2.  FOR STATEMENT:
*                  THE TEST IS MADE AT THE TOP OF THE LOOP.
*
*              3.  THE RIGHT SUBSCRIPT VARIES THE FASTEST.
*
*              4.  BRANCHING OUT OF A FOR-LOOP DE-ACTIVATES IT.
*                  (UNLESS VIA A GOSUB).
*
*              5.  ALL OPERATIONS ON 2-DIMENSIONAL ARRAYS MAY BE DONE
*                  ON SINGLY-DIMENSIONED ARRAYS EXCEPT
*                  TRN, IDN, AND INV.
*                  MATRIX MULTIPLY OF A VECTOR BY A MATRIX WILL WORK IF
*                  THE VECTOR IS THE SECOND ARRAY.
*                  EG.
*                    A = B(5,5) * C(5) WILL WORK.
*
*              6.  ARRAYS ARE ALLOCATED DYNAMICALLY WHEN NECESSARY AND
*                  REDEFINED TO FIT THE DIMENSIONS ON THE RIGHT.
*
*              7.  SUBSCRIPTS MUST BE POSITIVE, NON-ZERO AND LESS THAN
*                  THE ALLOCATED AMOUNT.
*
*
***********************************************************************
         EJECT
**************** OPERAND CODES ****************************************
*
*                 CODES           OPERANDS
*                 -----           --------
*
*              1000 - 1019         A - Z
*              2000 - 2103         A0- Z9
*              3000 - 3019         A$- Z$
*              4000 - 4XXX         TEMP ADDRESSES (FOR EVAL A-Z)
*              5000 - 5XXX         TEMP VALUES
*              6000 - 6XXX         NUMBER CONSTANTS
*              7000 - 7XXX         STRING CONSTANTS
*              8000 - 8XXX         TEMP ADDRESSES (FOR EVAL A$-Z$)
*                 9000             ZER
*                 9001             CON
*                 9002             IDN
*                 9003             TRN
*                 9004             INV
*                 9005             NRM
*                 9006             EIG
*                 A000             SIN
*                 A001             COS
*                 A002             TAN
*                 A003             ATN
*                 A004             LOG
*                 A005             EXP
*                 A006             SQR
*                 A007             RND
*                 A008             ABS
*                 A009             SGN
*                 A00A             INT
*                 A00B             PAT
*                 A00C             PDT
*                 A00D             PSX
*                 A00E             PSY
*                 A00F             PCH
*                 A010             PLT
*                 A011             DAT
*                 A012             CLK
*                 A013             LEN
*                 A014             CAT
*                 A015             LST
*                 A016             RST
*                 A017             NDX
*                 A018             NCH
*                 A019             CHN
*                 A01A             TAB
*              B000 - B019         FNA - FNZ
*
***********************************************************************
         EJECT
***********************************************************************
*             OP CODE                            OPERAND1   OPERAND 2
*             -------                            --------   ---------
*              0100                STACK FOR      -         -
*              0101                MAX            V         -
*              0102                STEP           V         -
*              0103                TEST           V         -
*              0104                NEXT           V         -
*              0200                GO TO          LINE#     -
*              0201                BRANCH         LINE#     -
*              0202                GO SUB         LINE#     -
*              0203                RESTORE        -         -
*              0204                END            -         -
*              0205                STOP           -         -
*              0206                PAUSE          -         -
*              0207                RETURN         -         -
*              0208                DUMP           -         -
*              0209                STACK FN       -         X
*              020A                UNSTACK FN     V         X
*              020B                COMP GOTO (ON) V         N
*              020C                CLEAR DATA     -         -
*              0300                COMP <         V         V
*              0301                COMP >         V         V
*              0302                COMP <=        V         V
*              0303                COMP >=        V         V
*              0304                COMP <>        V         V
*              0305                COMP =         V         V
*              0306                 =             V         V
*              0307                 +             V         V
*              0308                 -             V         V
*              0309                 *             V         V
*              030A                 /             V         V
*              030B                 **            V         V
*              030C                SUBS           V         -
*              030D                EVAL           V         1 OR  2
*              0400                READ           V         -
*              0401                PRINT          V         DELIMITER
*              0402                READ(N,I)INIT  N         I
*              0403                READ(N,I,EOF)  V         EOF
*              0404                WRITE(N,I)INIT N         I
*              0405                WRITE(N,I)     V         -
*              0406                INPUT          V         -
*              0407                MAT READ       V         -
*              0408                MAT PRINT      V         DELIMITER
*              0409                MAT INPUT      V         -
*              040A                MAT READ-I     V         EOF
*              040B                MAT WRITE-I    V         DELIMITER
*              040C                PR. USING INIT.V           -
*              040D                IMAGE                    STRING
*              040E                PR. USING ITMS V         DELIMETER
*              040F                MAT PR. US.INT V           -
*              0410                MAT PR.US.ITM  V         DELIMETER
*              0506                MAT =          V         V
*              0507                MAT +          V         V
*              0508                MAT -          V         V
*              0509                MAT *          V         V
*              050A                MAT SCALAR*    V         V
*              050D                DEFINE MAT     V         1 OR 2
***********************************************************************
         EJECT
**************** REGISTER USAGE ***************************************
*
R0       EQU   0                       -STATEMENT NUMBER
*                                      -LEFT SUBSCRIPT OF ARRAYS
*
FIX1     EQU   1                       -RIGHT SUBSCRIPT OF ARRAYS
R1       EQU   1                       -ARGUMENT LIST POINTER
*
R2       EQU   2                  USED IN BXLOOP ON ENTRY
RL       EQU   2                       -ALINEBEG+USER
*
R3       EQU   3                  USED IN BXLOOP ON ENTRY
RLI      EQU   3                       -CURRENT INDEX TO LINES
*                                       (SAVED IN ALINERUN)
*
R4       EQU   4                  USED IN BXLOOP ON ENTRY
RCODE    EQU   4                  POINTS TO NEXT FREE CORE FOR CODE
RZ       EQU   4                  BASE REG. DURING CODE EXECUTION
*
R5       EQU   5                  USED IN BXLOOP ON ENTRY
RCI      EQU   5                       -ACODEBEG+USER+INDEX
*
R6       EQU   6                  USED IN BXLOOP ON ENTRY
RTI      EQU   6                       -ATEMPBEG+USER+INDEX
*
R45      EQU   7  USED IN TYPE04 AND TYPE05 SECTS. AS WORK REGISTER
R31      EQU   7  USED IN TYPE03 AND TYPE01 SECTS. AS LINK REGISTER
*
RX       EQU   8                       -WORK
R8       EQU   8                       -EVEN REGISTER FOR MULTIPLY
*
RY       EQU   9                       -WORK
R9       EQU   9                       -ODD REGISTER FOR MULIPLY
*
RBASE2   EQU   10                 SECOND BASE REGISTER FOR EXEC
*
USER     EQU   11                      -BASE OF AREA
*
RBASE    EQU   12                      -BASE OF PROGRAM
R12      EQU   12
*
R13      EQU   13                      -SAVE AREA POINTER
*
FIX2     EQU   14                      -RIGHT SUBSCRIPT OF ARRAYS
RET      EQU   14                      -LOCAL RETURN REGISTER
R14      EQU   14                      -GLOBAL RETURN
*
R15      EQU   15                      -INITIAL ENTRY REGISTER
SW       EQU   15                      -USING ATOZDSCT
*                                       USING ASTGDSCT
*
F0       EQU   0                       -WORK
F2       EQU   2                       -WORK
F4       EQU   4                       -RETURN SWITCH FROM INV.
F6       EQU   6                       -DETERMINANT FROM INV.
*
***********************************************************************
         TITLE 'BASIC COMPILER  -  INITIALIZATION'
*************** INITIALIZATION ****************************************
*
         SAVE  (14,12),,*              -OS ENTRY
         USING EXEC,R15
         USING AREA,USER               -USER  POINTS TO BEGINNING
*                                       OF USER AREA
*
         ST    R0,ASAVE                -LINE #
*
         LA    RX,72(,R13)             -LA  RX,SAVE
         ST    R13,4(,RX)              -ST  R13,SAVE+4
         ST    RX,8(R13)
         LR    R13,RX
*
         BAL   RBASE,SETREGS
BASE     B     8(,RZ)      EVERY EXECUTABLE STATEMENT ESTABLISHES
*                          ADDRESSABILITY BY EXECUTING  BALR  RZ,RBASE
*                                              OR    BAL  RZ,0(,RBASE)
 SPACE
         DROP  R15
         USING ALINE,RL
         USING CODE,RCODE
         USING CODEDSCT,RCI
         USING BASE,RBASE,RBASE2
 SPACE
SETREGS  LR    RBASE2,RBASE
         A     RBASE2,=F'4096'    2ND BASE REG. FOR THIS PROGRAM
*
         L     RCODE,AXXXXBEG          SET CODE BASE REGISTER TO THE
         LA    RCODE,0(RCODE,USER)     BEGINNING OF THE EXECUTABLE CODE
         ST    RCODE,AXXXXPTR  INITIALIZE CODE POINTER VARIABLE
*
         L     RL,ALINEBEG             -RL - POINTS TO THE REAL
         LA    RL,0(RL,USER)            BEGINNING OF THE LINES TABLE.
*
         L     RTI,AFORRBEG            -RTI - POINTS TO THE BEGINNING
         LA    RTI,0(RTI,USER)           OF THE FORR STACK
         SH    RTI,TWENTY         FNINIT ALWAYS STARTS BY ADDING TWENTY
         ST    RTI,AFORRORG            INITIALIZE THE CONSTANT
         A     RTI,AFORRSIZ       COMPUTE LIMIT FOR FORR
         ST    RTI,AFORREND       INITIALIZE THE CONSTANT
*
         L     RTI,ATEMPBEG            -RTI - POINTS TO THE BEGINNING
         LA    RTI,0(RTI,USER)           OF THE TEMP STACK
         ST    RTI,ATEMPORG            INITIALIZE THE CONSTANT
         A     RTI,ATEMPSIZ       COMPUTE LIMIT FOR TEMP
         ST    RTI,ATEMPEND       INITIALIZE THE CONSTANT
*
         L     RX,ACODEBEG             -RX - POINTS TO THE BEGINNING
         LA    RX,0(RX,USER)            OF PSEUDO-CODE  (ACTUAL)
         ST    RX,ACODEORG             SAVE THE BEGINNING ADDRESS
*
         SR    RX,RX                   -FOR FINDLINE
         ST    RX,ADEFNPTR             -IN CASE OF RESTART
*
         SENSE 2               GET ADDRESS OF TWORK INTO R1
         L     1,0(1)             DISPL. FOR LOAD TEXT
         L     RX,ADATABEG
         AR    RX,USER
         S     RX,=F'4'      ADDRESS IN ADATA TO STORE ADDRESS OF TWORK
         ST    R1,0(RX)
         USING TWORK,R1      R1 WILL BE BASE FOR SW9 IN TWORK
         L     R0,ASAVE      RESTORE LINE #
         SR    RX,RX         RESET RX TO 0
*
* IF ENTRY INTO 'EXEC' IS MADE WITH ZERO IN R0 (PROGRAM IS TO
* BE EXECUTED FROM THE TOP) THEN CODE WILL BE COMPILED WHEREVER
* IT IS POSSIBLE TO DO SO.
*
* IF THIS IS AN ENTRY TO EXECUTE AN 'IMMEDIATE' STATEMENT, OR THE
* USERS PROGRAM IS BEING ENTERED OR RE-ENTERED OTHER THAN AT THE
* TOP, THEN THE STATEMENT(S) WILL BE EXECUTED INTERPRETIVELY.
*
         C     R0,HIGHLINE
         BE    FINDLINE           BRANCH IF 'IMMEDIATE' STATEMENT
*
         STM   R14,R6,12(R13)     TEMP. SAVE AREA FOR REGISTERS
         LM    R3,R5,BXLINIT      INITIALIZE REGISTERS
         LA    R14,X'3F'          MASK FOR BXLE LOOP
         SR    R6,R6
         LTR   R15,R0             LINE NUMBER
         BZ    BXLOOP             BRANCH IF EXECUTING FIRST STATEMENT
*
         LA    R15,X'FF'          SET 'INTERPRET ONLY' FLAGS
         LA    R6,X'40'           SET 'OLD STATEMENT' FLAG BIT
*
BXLOOP   IC    R0,2(RLI,RL)       FLAG BITS BYTE OF AN ENTRY IN
*                                 THE 'ALINE' TABLE.
         NR    R0,R14             REMOVE BITS SET BY PREVIOUS ENTRY
         OR    R0,R6              OR IN POSSIBLE FLAG BIT
         STC   R0,2(RLI,RL)       RESET FOR THIS ENTRY.
         STC   R15,ACPTR(RLI)     SET FLAG BITS IN 'ACPTR' TABLE
         BXLE  R3,R4,BXLOOP
         LM    R14,R6,12(R13)     TEMP. SAVE AREA FOR REGISTERS
*
         SR    RLI,RLI            INDEX TO LINES               10/21/71
         LTR   R0,R0              TEST TYPE OF CALL            10/21/71
         BZ    SETPTR             BRANCH IF STARTING AT TOP    10/21/71
         CLC   AFORRPTR,AFORRORG                               10/21/71
         BL    SETPTR             BRANCH IF POINTER NEVER SET  10/21/71
         CLC   AFORRPTR,AFORREND                               10/21/71
         BNL   SETPTR             BRANCH IF POINTER NEVER SET  10/21/71
         TM    AFORRPTR+3,3                                    10/21/71
         BZ    PTRSET             BRANCH IF GOOD 'FORR' POINTER
SETPTR   MVC   AFORRPTR,AFORRORG  INITIALIZE THE POINTER       10/21/71
PTRSET   LTR   R0,R0              TEST TYPE OF CALL            10/21/71
         BZ    REORGRTI           BRANCH IF STARTING AT TOP    10/21/71
         BP    FINDLINE           BRANCH TO EXECUTE STATEMENT IN R0
         B     CONTINUE           BRANCH TO EXECUTE THE ONE BEYOND
 SPACE
BXLINIT  DC    A(0,4,ALINEMAX)
         LTORG
         TITLE 'BASIC COMPILER  -  COMPILER'
         DS    0F
MASK2    DC    X'00004000'
MASK1    DC    X'00003FFF'
LRX      L     RX,0(,RZ)
LMRXRY   LM    RX,RY,0(RZ)
HWBRADD  DC    A(HWBR,2,0)
FWBRADD  DC    A(FWBR,4,0)
HWLAADD  DC    A(HWLA,6,6)
FWLAADD  DC    A(FWLA,8,6)
FWLA     LA    RTI,4(,RTI)
FWBR     BAL   RZ,0(,RBASE)
HWLA     LA    RTI,4(,RTI)
HWBR     BALR  RZ,RBASE
SMLBMVC  MVC   CODE(0),6(R14)
         MVC   CODE(0),10(R14)
 SPACE
*
*** ENTER HERE TO SET UP EXECUTABLE CODE THAT DOES NOT NEED A BASE REG.
*
MVLA     OI    AFLAGS,ASMLBSWI    SET FLAG BIT
*
*
*** ENTER HERE TO SET UP EXECUTABLE CODE THAT DOES NEED A BASE REG.
*
SMLB     LA    R0,4               CONSTANT FOR 'AR AND SR' INSTRUCTIONS
         LH    R3,0(,R14)          NUMBER OF BYTES OF EXECUTABLE CODE
*
         SR    R1,R1
         TM    AFLAGS,ASMLBSWI
         BO    SMLBEX             BRANCH IF RX/RY ALREADY LOADED
*
         LR    R15,RCODE          A(NEXT REGION AVAILABLE FOR CODE)
         SR    RCODE,R0           A(LAST INSTRUCTION IN EXECUTION CODE)
         SR    RCODE,R0           A(LAST BUT ONE MACHINE INSTRUCTION)
*
         CLC   CODE(8),STEF0LA
         BNE   SMLBLR             BRANCH IF NOT .. STE  F0,0(,RTI)
*                                               .. LA   RTI,4(,RTI)
*
         LA    R1,0(,RTI)
         SR    R1,R0              A(LAST TEMP SLOT USED BY F0)
*
         CR    R1,RX
         BNE   SMLBCRY            BRANCH IF RX NOT POINTING TO IT
*
         CLC   6(4,R14),LEF0RX
         BNE   SMLBLR             BRANCH IF F0 NOT LOADED FROM IT
         B     SMLBSR
 SPACE
SMLBCRY  CR    R1,RY
         BNE   SMLBLR             BRANCH IF RY NOT POINTING TO TEMP
*
         CLC   6(4,R14),LEF0RY
         BNE   SMLBLR             BRANCH IF F0 NOT LOADED FROM IT
*
SMLBSR   SR    R3,R0              TO MOVE IN 4 LESS BYTES OF CODE
*
         LM    R15,R1,HWLAADD
         TM    AXXXXPTR+3,2
         BO    *+8                BRANCH IF GOING TO HALF-WORD BOUNDRY
         LM    R15,R1,FWLAADD
         B     SMLBCOM
 SPACE
SMLBLR   LR    RCODE,R15          RESET THE EXECUTABLE CODE POINTER
*
         LM    R15,R1,HWBRADD
         TM    AXXXXPTR+3,2
         BO    *+8                BRANCH IF GOING TO HALF-WORD BOUNDRY
         LM    R15,R1,FWBRADD
*
SMLBCOM  MVC   CODE(8),0(R15)     MOVE IN EXECUTABLE CODE
         AR    RCODE,R0
         STM   RX,RY,CODE         MOVE IN REGISTER CONTENTS
         MVC   CODE+8(4),LMRXRY   MOVE IN REGISTER LOADING CODE
         LA    RCODE,12(,RCODE)
*
SMLBEX   EX    R3,SMLBMVC(R1)     MOVE IN EXECUTABLE CODE
         AR    RCODE,R3
         ST    RCODE,AXXXXPTR     NEXT REGION AVAILABLE FOR CODE
*
SMLBRET  NI    AFLAGS,255-ASMLBSWI     RESET THE FLAG BIT
         B     2(,R14)             RETURN
 SPACE 2
*
*** SETS UP IN-LINE CODE THAT CAUSES A SAVED VALUE TO BE RESTORED TO RX
*** BUT DOES NOT DISTURB THE CURRENT CONTENTS OF RY.  ALSO MOVES IN
*** EIGHT BYTES OF EXECUTABLE CODE.
*
SMLX     MVC   CODE(4),FWBR
         ST    RX,CODE+4
         MVC   CODE+12(4),LRX
         MVC   CODE+16(8),0(R31)
         LA    RCODE,24(,RCODE)
         ST    RCODE,AXXXXPTR
         BR    R31
 SPACE 2
*
*** DELETE ANY IN-LINE CODE FOR THIS STATEMENT AND INSERT A BRANCH BACK
*** TO THE INTERPRETIVE PART OF 'EXEC'.  RESET THE POINTER FOR THE LINE
*** AND THE POINTER TO THE NEXT FREE CORE AVAILABLE FOR IN-LINE CODE.
*
DLTR     LH    R0,2(RLI,RL)
         N     R0,MASK1           REMOVE CODE-SET-UP FLAG BIT
         O     R0,MASK2           INSERT STATEMENT-ENCOUNTERED FLAG
         STH   R0,2(RLI,RL)       SAVE ORIGINAL VALUE AND FLAG BIT
         L     RCODE,ACPTRSVR     RESET POINTER FOR THIS LINE BACK TO
         ST    RCODE,ACPTR(RLI)   THE CORE ORIGINALLY ASSIGNED TO THE
         MVC   CODE(4),GOTOSTMT   STATEMENT AND INSERT A BRANCH INSTR.
         OI    AXXXXSVR,X'80'     INHIBIT COMPILER FOR REST OF THIS
*                                 STATEMENT AT THIS ENCOUNTER.
         L     RCODE,AXXXXSVR     GIVE UP THE REST OF THE SPACE FOR
         ST    RCODE,AXXXXPTR     THIS STATEMENT AND RESET THE POINTER.
         NI    AXXXXPTR,X'7F'     KEEP IT CLEAN
DLTRET   BR    R14
 SPACE 2
*
*** INHIBIT ATTEMPTS TO SET UP IN-LINE CODE FOR THIS STATEMENT IF IT
*** ENCOUNTERED AGAIN DURING THIS RUN.
*
SETIMO   LA    R0,X'80'
         STC   R0,ACPTRSVR
         STC   R0,ACPTR(RLI)
         BR    RET
 SPACE 2
*
*** COME HERE AT END OF INTERPRETING A STATEMENT.
*** IF NO IN-LINE CODE SET UP GO TO NEXTSTMT TO BUMP RLI
*** IF TEMP. STORAGE NOT USED GO TO REMOVE UNNEEDED REFERENCES TO IT
*** OTHERWISE, JUST CHECK INTERFACE BETWEEN THIS STATEMENT AND THE NEXT
*
NDOFSTMT BINEC NEXTSTMT           BRANCH IF STATEMENT TO BE EXECUTED
*                                 IN INTERPRETIVE MODE ONLY.
         TM    AFLAGS,ATFLESWI
         BO    TSTNXTST           BRANCH IF TEMP. STORAGE USED
*
*
********* TEST FOR THIS STATEMENT LOADING FROM TEMPORARY STORAGE ****
*
TFLE     L     RCODE,ACPTR(RLI)   RCODE <= A(EXEC. CODE FOR STATEMENT)
         LR    RX,RCODE
         N     RX,=F'3'           SAVE THE LAST TWO BITS
         LA    RCODE,0(RX,RCODE)  ZAP FIRST BYTE, ROUND TO FULL WORD
*
TFLELOOP CLI   CODE+8,X'98'
         BNE   TFLELEND           BRANCH IF NOT 'LOAD MULTIPLE'
         CLC   LMRXRY,CODE+8
         BNE   TFLELEND           BRANCH IF NOT 'LM   RX,RY,0(RZ)'
*
         CLI   CODE+12,X'78'
         BNE   TFLETR16           BRANCH IF NOT LOADING FL. PT. REG.
*
         CLI   CODE+14,X'80'
         BE    TFLETRYX           BRANCH IF USING RX TO LOAD THE REG.
*
         CLC   CODE+4(4),ATEMPORG
         BL    TFLETR16           BRANCH IF NOT LOADING FROM TEMP.
         CLC   CODE+4(4),ATEMPEND
         BL    TSTNXTST           BRANCH IF TEMP. STORAGE IS USED
         B     TFLETR16
 SPACE
TFLETRYX CLC   CODE(4),ATEMPORG
         BL    TFLETR16           BRANCH IF NOT LOADING FROM TEMP
         CLC   CODE(4),ATEMPEND
         BL    TSTNXTST           BRANCH IF TEMP. STORAGE IS USED
*
TFLETR16 CLI   CODE+16,X'78'
         BNE   TFLELEND           BRANCH IF NOT LOADING FL. PT. REG.
*
         CLI   CODE+18,X'90'
         BE    TFLETRYY           BRANCH IF USING RY TO LOAD THE REG.
*
         CLC   CODE(4),ATEMPORG
         BL    TFLELEND           BRANCH IF NOT LOADING FROM TEMP
         CLC   CODE(4),ATEMPEND
         BL    TSTNXTST           BRANCH IF TEMP. STORAGE IS USED
         B     TFLELEND
 SPACE
TFLETRYY CLC   CODE+4(4),ATEMPORG
         BL    TFLELEND           BRANCH IF NOT LOADING FROM TEMP.
         CLC   CODE+4(4),ATEMPEND
         BL    TSTNXTST           BRANCH IF TEMP. STORAGE IS USED
*
TFLELEND LA    RCODE,4(,RCODE)
         C     RCODE,AXXXXPTR
         BL    TFLELOOP           LOOP BACK UNTIL END OF STATEMENT
*
********* DELETE TEMPORARY STORAGE REFERENCES **********************
*
         LA    R0,2