         MACRO                                                                  
&NAME    MODULE &ID=00,&AMODE=31,&RMODE=ANY,&TRCNUM=0                           
         GBLC  &MODULE                                                          
&MODULE  SETC  '&NAME'                                                          
         GBLA  &$TRMOD                                                          
&$TRMOD  SETA  &TRCNUM                                                          
&NAME    AMODE &AMODE                                                           
&NAME    RMODE &RMODE                                                           
&NAME    CSECT                                                                  
         IDENT &ID                                                              
         MEND                                                                   
