*%/*                                                                    00025000
         MACRO                                                          00050000
&NAME   ABEND &CC,&DUMP,&STEP,&USESYS,&DUMPOPT=,&DUMPOPX=,&REASON= @L2C 00054300
.*000400,000800,001600-001700,001800-002600,003400-005400               00058600
.*005800-006000,006200,006800-007200,007600-008400,008800               00062900
.*                                                                      00063000
.********************************************************************** 00063100
.*                                                                    * 00063200
.* MACRO NAME = ABEND                                                 * 00063300
.*                                                                    * 00063400
.* DESCRIPTIVE NAME = ABNORMALLY TERMINATE THE CURRENT TASK           * 00063500
.*                                                                    * 00063600
.* COPYRIGHT =                                                        * 00063700
.*   5645-001                                                         * 00063800
.*   THIS MODULE IS "RESTRICTED MATERIALS OF IBM"                     * 00063900
.*   (C) COPYRIGHT IBM CORP. 1980,1996                                * 00064000
.*   LICENSED MATERIALS - PROPERTY OF IBM                             * 00064100
.*                                                                    * 00064300
.*01* EXTERNAL CLASSIFICATION: GUPI                                   * 00064400
.*                                                                    * 00064500
.*01* END OF EXTERNAL CLASSIFICATION:                                 * 00064600
.*                                                                    * 00064700
.* MACMEAN = ABEND MEANS ABNORMALLY TERMINATE THE CURRENT TASK        * 00064800
.* STATUS  = HBB6601                                                  * 00064900
.* MACCOMP = SCRTM                                                    * 00065000
.*                                                                    * 00065100
.* UPDATED 03/27/81 OS/VS2 HBB2102                            @G860P1C* 00065200
.* $L1=AR     ,HBB3310,850916,PDA8: SUPPORT FOR ACCESS REGISTERS  @L1A* 00065300
.* $L2=DATASPAC,HBB3310,861029,PDT9: PROPAGATION OF DATA SPACE        * 00065400
.*                                   STORAGE RANGES FOR ABDUMP    @L2A* 00065500
.* $P1=PC42131,HBB3310,880215,PDL3: LCLB FOR &B TOO SMALL         @P1A* 00065600
.* $01=OY36787,HBB3310,901101,PDXB: CHECK FOR REASON < 0              * 00065700
.* $P2=PR20011,HBB6601,950908,PDKD: SC1CM COMPID SPLIT            @P2A* 00065800
.*                                                                    * 00065900
.********************************************************************** 00066100
.*                                                                      00066500
         LCLA  &CTR                                                     00067200
         LCLB  &B(5)                                               @P1C 00070000
         LCLB  &BB(4)                                          @G860P1F 00072800
&NAME    DS    0H                                                       00075800
         AIF   ('&CC' EQ '').E1                                         00080100
&B(1)    SETB  ('&DUMP' EQ 'DUMP')                                      00084400
&B(2)    SETB  ('&STEP' EQ 'STEP')                                      00088700
&B(3)    SETB  ('&DUMPOPT' NE '')                                       00093000
&B(4)    SETB  ('&REASON' NE '')       REASON CODE SPECIFIED   @G860P1F 00093400
&B(5)    SETB  ('&DUMPOPX' NE '')      DUMPOPX SPECIFIED           @L2A 00093600
&BB(1)   SETB  ('&CC'(1,1) NE '(' AND T'&CC NE 'N')            @G860P1F 00093800
&BB(2)   SETB  0                       INITIALIZE TO ZERO      @G860P1F 00094200
         AIF   ('&REASON' EQ '').A1  REASON CODE NOT SPECIFIED @G860P1F 00094600
&BB(2)   SETB  ('&REASON'(1,1) NE '(' AND T'&REASON NE 'N')    @G860P1F 00095000
.A1      ANOP                                                  @G860P1F 00095400
&BB(3)   SETB  (&BB(1) AND &BB(2))                             @G860P1F 00095800
&BB(4)   SETB  0                       INITIALIZE TO ZERO      @G860P1F 00096200
         AIF   ('&USESYS' NE 'SYSTEM' AND '&USESYS' NE 'USER' AND '&USEC00097300
               SYS' NE '').E4                                           00101600
.TEST0   AIF   ('&DUMP' NE '' AND NOT &B(1)).E2                         00105900
.TEST    AIF   ('&STEP' NE '' AND NOT &B(2)).E3                         00110200
         ANOP                                                      @L2A 00113400
.TEST1   AIF   (&B(3) AND &B(5)).E6                                @L2A 00116600
&CTR     SETA  128*&B(1)+64*&B(2)+32*&B(3)+32*&B(5)+4*&B(4)        @L2C 00119800
         AIF   ('&CC'(1,1) EQ '(').CONTA                                00123100
         AIF   (T'&CC NE 'N').AA                                        00127400
         AIF   (&CC GT 4095).AA0                                        00131700
&BB(4)   SETB  1           HIGH ORDER 8 BITS OF REG1 ARE ZEROS @G860P1F 00133800
.CONTA   ANOP                                                           00136000
         IHBINNRR &CC             LOAD REG1 WITH COMPCODE          @L1C 00140300
         AIF   (T'&CC EQ 'N' AND '&CC'(1,1) NE '(').CKSYS               00144600
.POSITIO ANOP                                                           00148900
         AIF   ('&USESYS' EQ '').FLAGS                                  00153200
         SLL   1,20(0)            SHIFT OFF HIGH ORDER 20 BITS @G860P1F 00156000
&BB(4)   SETB  1           HIGH ORDER 8 BITS OF REG1 ARE ZEROS @G860P1F 00158800
         AIF   ('&USESYS' NE 'SYSTEM').USER                             00161800
         SRL   1,8(0)             CODE IN SYSTEM POSITION               00166100
         AGO   .FLAGS                                                   00170400
.USER    SRL   1,20(0)            SHIFT TO USER POSITION                00174700
         AGO   .FLAGS                                                   00179000
.AA0     ANOP                                                           00183300
         AIF   ('&USESYS' EQ '').AA1                                    00187600
         MNOTE *,'CC EXCEEDS SPECIFIED LIMITS - LOW 12 BITS USED'       00191900
         AGO   .AA                                                      00196200
.AA1     MNOTE *,'CC EXCEEDS SPECIFIED LIMITS'                          00200500
.AA      AIF   (&BB(3)).AA2                                    @G860P1F 00203300
         CNOP  0,4                                             @G860P1F 00206100
         B     *+8                BRANCH AROUND CONSTANTS               00209100
         DC    AL4(&CC)                                                 00213400
         L     1,*-4              LOAD REG1 WITH COMPCODE               00217700
         AGO   .POSITIO                                                 00222000
.AA2     CNOP  0,4                ALIGN ON WORD BOUNDARY       @G860P1F 00222400
         B     *+12               BRANCH AROUND CONSTANTS      @G860P1C 00222800
         DC    AL4(&CC)           COMPLETION CODE              @G860P1F 00223200
         DC    AL4(&REASON)       REASON CODE                  @G860P1C 00223700
         L     1,*-8              LOAD REG1 WITH COMP CODE     @G860P1C 00224200
         L     15,*-8             LOAD REG15 WITH REASON CODE  @G860P1C 00224700
         AGO   .POSITIO                                        @G860P1F 00225200
.CKSYS   AIF   ('&USESYS' NE 'SYSTEM').FLAGS                            00226300
         SLL   1,12(0)            CODE IN SYSTEM POSITION               00230600
.*  PROCESS REASON CODE.                                       @G860P1F 00231100
.FLAGS   ANOP                                                  @G860P1F 00231600
         AIF   ('&REASON' EQ '').R9 REASON CODE NOT SPECIFIED  @G860P1F 00232100
         AIF   (&BB(3)).R9                                     @G860P1F 00232600
         AIF   ('&REASON'(1,1) EQ '(').R2                      @G860P1F 00233100
         AIF   (T'&REASON NE 'N').R5                           @G860P1F 00233600
         AIF   (&REASON GT 4095).R5                            @G860P1F 00234300
         AIF   (&REASON LT 0).R5                                   @01A 00234400
         LA    15,&REASON         LOAD REG15 WITH REASON CODE  @G860P1F 00234600
         AGO   .R9                                             @G860P1F 00235100
.* R2    AIF   (T'&REASON(1) NE 'N').R3                        @G860P1F 00235200
.R2      AIF   ('&REASON' EQ '(15)').R9                        @G860P1C 00235300
.R3      ANOP                                                  @G860P1F 00235400
         LR    15,&REASON(1)      LOAD REG15 WITH REASON CODE  @G860P1F 00235500
         AGO   .R9                                             @G860P1F 00237100
.R5      ANOP                                                  @G860P1F 00237600
         CNOP  0,4                ALIGN ON WORD BOUNDARY       @G860P1C 00238100
         B     *+8                BRANCH AROUND CONSTANTS      @G860P1C 00238600
         DC    AL4(&REASON)       REASON CODE                  @G860P1C 00239100
         L     15,*-4             LOAD REG15 WITH REASON CODE  @G860P1C 00239600
.R9      AIF   (&CTR EQ 0).SVC                                 @G860P1F 00240100
         AIF   (&BB(4) OR '&REASON' EQ '').R10                 @G860P1F 00240600
         SLL   1,8(0)             SHIFT OFF HIGH ORDER 8 BITS  @G860P1F 00241100
         SRL   1,8(0)             ZERO HIGH ORDER 8 BITS       @G860P1F 00241600
.R10     ANOP                                                  @G860P1F 00242100
         LA    0,&CTR.(0,0)       DUMP/STEP/DUMPOPTS/REASON    @G860P1F 00242600
         SLL   0,24(0)            SHIFT TO HIGH ORDER                   00243500
         OR    1,0                OR IN WITH COMPCODE                   00247800
.DUMPOPT AIF  (NOT &B(3)).DUMPOPX                                  @L2C 00252100
         IHBINNRR ,&DUMPOPT       LOAD REG0                             00256400
         AGO  .SVC                                                 @L2A 00257200
.DUMPOPX ANOP                                                      @L2A 00258000
         AIF  (NOT &B(5)).SVC     TEST IF DUMPOPX SPECIFIED        @L2A 00258800
         IHBINNRR ,&DUMPOPX       LOAD REGISTER 0                  @L2A 00259600
.SVC     SVC   13                 LINK TO ABEND ROUTINE                 00260700
         MEXIT                                                          00265000
.E1      IHBERMAC 28,303                                                00266400
         MEXIT                                                 @G860P1F 00267800
.E2      IHBERMAC  37,,&DUMP                                            00269300
         AGO   .TEST                                                    00273600
.E3      IHBERMAC  38,,&STEP                                            00277900
         AGO   .TEST1                                              @L2C 00282200
.E4      IHBERMAC  39,,&USESYS                                          00286500
         AGO   .TEST0                                                   00290800
.E5      MNOTE 8,'VALUE OF ''REASON'' EXCEEDS DECIMAL 65535'   @G860P1F 00298300
         MEXIT                                                     @L2A 00298800
.E6      IHBERMAC 1304,DUMPOPT,DUMPOPX                             @L2A 00299300
         MEND                                                           00300000
**/                                                                     00350000
*  ABEND: /***********************************************************/ 00400000
*/*ABEND: PL/S VERSION OF ABEND MACRO                                */ 00450000
*/********************************************************************/ 00500000
* MACRO                                                                 00550000
*  KEYS(DUMP,                                                           00600000
*       STEP,                                                           00650000
*       USER,                                                           00700000
*       SYSTEM,                                                         00750000
*       DUMPOPTS,                                                       00783300
*       DUMPOPX,                                              /* @L2A*/ 00799900
*       REASON);                                                        00816600
*        ANS('?'||MACLABEL||'ABENDP '||MACLIST||MACKEYS||';'); /*@L2A*/ 00850000
*%END;                                                                  00900000
