        MACRO                                                           00000400
&NAME    ACB   &DDNAME=,&EXLST=0,&MACRF=,                              -00000800
               &JFCB=0,&BUFND=0,&BUFNI=0,&PASSWD=0,                    -00001200
               &BLKSIZE=0,&LRECL=0,&BUFSP=0,                           -00001600
               &CCTYPE=,&STRNO=1,&CATALOG=NO,                          -00002000
               &BSTRNO=0,&MAREA=0,&MLEN=0,&CRA=,                       -00002400
               &AM=,&APPLID=0,&USERPTR=0,                              -00002800
               &RMODE31=,                                          @LPA-00003200
               &PARMS=,&PARM2=,&PARM3=,&SHRPOOL=0,                 @LQC-00003600
               &SUBSYSNM=,&CTRLACB=NO,&RLSREAD=NORD                @LQA 00004000
.*                                                                      00004400
.* $MAC(ACB) COMP(SC1DE):                                               00004800
.*                                                                      00005200
.*PROPRIETARY V3 STATEMENT                                              00006200
.*LICENSED MATERIALS - PROPERTY OF IBM                                  00012400
.*"RESTRICTED MATERIALS OF IBM"                                         00018600
.*5647-A01                                                              00024800
.*(C) COPYRIGHT 1983,2000  IBM CORP.                                    00031000
.*END PROPRIETARY V3 STATEMENT                                          00037200
.*                                                                      00043400
.* STATUS = HDZ11F0                                                     00093400
.*                                                                      00450000
.* $L1=DFP,JDP1110,,STLJRB: MVS/XA DFP RELEASE 1.1 VSAM 31-BIT     @L1A 00475000
.* $L9=DFP,HDP2230,,STLJRB: MVS/XA DFP RELEASE 2.2 VSAM 31-BIT     @L9A 00500000
.* $LP=DFP,HDP2230,,STLJTP: MVS/XA DFP RELEASE 2.2 31/24 BIT       @LPA 00525000
.* APAR TO SHIP 31/24 BIT CODE                                @YA03764  00550000
.* CHANGE CONTINUATION CHARACTER TO '-'                       @YA21154  00575000
.*                                                                      00600000
.* FUNCTION - THIS MACRO CONTAINS THE PROTOTYPE STATEMENT               00650000
.*            FOR THE ACB MACRO.                                        00700000
.*            THE FUNCTION OF THIS MACRO IS TO DETERMINE                00750000
.*            IF THE PROGRAM ISSUING THE ACB MACRO IS                   00800000
.*            A VTAM USER OR A VSAM USER AND TO INVOKE                  00850000
.*            MACRO ACBVS FOR VSAM OR ISTACB1 FOR VTAM.                 00900000
.*                                                                      00950000
.* CHANGE ACTIVITY                                                      01000000
.*      CBMM SPLIT SUPPORT                                     @ZA34940 01050000
.* $LQ=DFSMS,HDZ11C0,043093,SJPLRG: VSAM RLS                       @LQA 01083300
.* $VC= DFSMS  HDZ11F0 10/26/99 SJPLJRB  : REMOVE VSAM CTLG SUPP   @VCA 01099900
.******************************************************************@LQC 01116600
         AIF   ('&AM' EQ 'VTAM').VTACB  IS IT VTAM                      01150000
         AIF   ('&AM' EQ 'VSAM').VSACB  IS IT VSAM                      01200000
         AIF   ('&AM' EQ '').VSACB      IF NULL, DEFAULT VSAM           01250000
.*                                                                      01300000
         IDAERMAC  3,AM,&AM             ISSUE ERROR MSG            @L9C 01350000
         MEXIT                                                          01400000
.*                                                                      01450000
.VTACB   ANOP                                                           01500000
&NAME    ISTACB1 DDNAME=&DDNAME,EXLST=&EXLST,                          -01550000
               MACRF=&MACRF,JFCB=&JFCB,BUFND=&BUFND,                   -01600000
               BUFNI=&BUFNI,PASSWD=&PASSWD,                            -01650000
               BLKSIZE=&BLKSIZE,LRECL=&LRECL,                          -01700000
               BUFSP=&BUFSP,CCTYPE=&CCTYPE,                            -01750000
               STRNO=&STRNO,CATALOG=&CATALOG,                          -01800000
               BSTRNO=&BSTRNO,MAREA=&MAREA,MLEN=&MLEN,                 -01850000
               CRA=&CRA,AM=&AM,APPLID=&APPLID,                         -01900000
               USERPTR=&USERPTR,                                       -01950000
               PARMS=&PARMS,PARM2=&PARM2,PARM3=&PARM3                   02000000
.*                                                                      02050000
         MEXIT                                                          02100000
.*                                                                      02150000
.*                                                                      02200000
.VSACB   ANOP                                                           02250000
&NAME    ACBVS DDNAME=&DDNAME,EXLST=&EXLST,                            -02289200
               MACRF=&MACRF,JFCB=&JFCB,BUFND=&BUFND,                   -02328400
               BUFNI=&BUFNI,PASSWD=&PASSWD,                            -02367600
               BLKSIZE=&BLKSIZE,LRECL=&LRECL,                          -02406800
               BUFSP=&BUFSP,CCTYPE=&CCTYPE,                            -02446000
               STRNO=&STRNO,                                       @VCC-02485200
               BSTRNO=&BSTRNO,MAREA=&MAREA,MLEN=&MLEN,                 -02524400
               AM=&AM,APPLID=&APPLID,                              @VCC-02563600
               USERPTR=&USERPTR,SHRPOOL=&SHRPOOL,                  @L1C-02602800
               RMODE31=&RMODE31,                                   @LPA-02642000
               PARMS=&PARMS,PARM2=&PARM2,PARM3=&PARM3,             @LQC-02681200
               SUBSYSNM=&SUBSYSNM,RLSREAD=&RLSREAD,                @LQA-02720400
               CTRLACB=&CTRLACB                                    @LQA 02759600
.*                                                                      02800000
         MEND                                                           02850000
