         MACRO                                                          00050000
&NAME    APPCCMD &RPL=,&AAREA=,&ACB=,&AREA=,&AREALEN=,&ARG=,           X00100000
               &BRANCH=,&CRYPT=,&ECB=,&EXIT=,&OPTCD=,&RECLEN=,         X00150000
               &CD=,&CGID=,&CONFTXT=,&CONMODE=,&CONTROL=,              X00200000
               &CONVID=,&CONXMOD=,&DEACTYP=,&FILL=,&LIST=,             X00250000
               &LOCKS=,&LOGMODE=,&LUNAME=,&NAMEUSE=,&NETID=,           X00300000
               &QUALIFY=,&RTSRTRN=,&SENSE=,&SESSID=,&SESSIDL=,         X00350000
               &TYPE=,&USERFLD=,&VTRINA=,&VTRINL=,&VTROUTA=,           X00383300
               &VTROUTL=                                          @D2C  00416600
.*                                                                      00450000
.* /***** START OF SPECIFICATIONS ************************************/ 00500000
.* /*                                                                */ 00550000
.* /*  MACRO NAME: APPCCMD                                           */ 00600000
.* /*                                                                */ 00650000
.* /*  DESCRIPTIVE NAME: LU6.2 FUNCTION REQUEST MACRO                */ 00700000
.* /*                                                                */ 00750000
.* /*  COPYRIGHT: LICENSED MATERIALS - PROPERTY OF IBM               */ 00800000
.* /*                                                                */ 00850000
.* /*             THIS PRODUCT CONTAINS "RESTRICTED MATERIALS OF IBM"*/ 00900000
.* /*                                                                */ 00950000
.* /*             5695-117 (C) COPYRIGHT IBM CORP. 1987, 1994.       */ 01000000
.* /*             ALL RIGHTS RESERVED.                               */ 01050000
.* /*                                                                */ 01100000
.* /*             U.S. GOVERNMENT USERS RESTRICTED RIGHTS -          */ 01150000
.* /*             USE, DUPLICATION OR DISCLOSURE RESTRICTED BY       */ 01200000
.* /*             GSA ADP SCHEDULE CONTRACT WITH IBM CORP.           */ 01250000
.* /*                                                                */ 01300000
.* /*             SEE COPYRIGHT INSTRUCTIONS.                        */ 01350000
.* /*                                                                */ 01400000
.* /*  FUNCTION:                                                     */ 01450000
.* /*      GENERATES IN-LINE CODE FOR APPCCMD MACRO                  */ 01500000
.* /*                                                                */ 01550000
.* /*  NOTES:                                                        */ 01600000
.* /*      THIS MACRO REQUIRES A "CONTROL=" PARAMETER TO SPECIFY THE */ 01650000
.* /*      PARTICULAR FUNCTION DESIRED. THE LIST OF VALID CONTROL    */ 01700000
.* /*      VALUES ARE FOLLOWING: ALLOC, SEND, RECEIVE, PREPRCV,      */ 01750000
.* /*      DEALLOC, DEALLOCQ, REJECT, CHECK, RCVFMH5, RESETRCV,      */ 01800000
.* /*      SENDEXPD, RCVEXPD, TESTSTAT, OPRCNTL, SETSESS, PREALLOC,  */ 01850000
.* /*      SENDFMH5 AND SENDRCV.                                     */ 01900000
.* /*      THE APPCCMD MACRO WHEN ISSUED MUST BE ACCOMPANIED         */ 01950000
.* /*      BY AN RPL THAT CONTAINS A POINTER TO APPC AREA (AAREA=)   */ 02000000
.* /*      WHICH WILL BE USED TO STORE THE VTAM APPC REQUEST         */ 02050000
.* /*      PARAMETER LIST. THE GENERATED CODE LOADS THE RPL          */ 02100000
.* /*      ADDRESS INTO REGISTER 1, MODIFIES RPL FIELDS AS           */ 02150000
.* /*      INDICATED BY THE RPL MODIFIERS ON THE APPCCMD. LOADS      */ 02200000
.* /*      A REQUEST CODE INTO REGISTER ZERO, AND BRANCHES TO THE    */ 02250000
.* /*      INTERFACE ROUTINE WHOSE ADDRESS IS IN THE ACB LOCATED     */ 02300000
.* /*      VIA THE RPL. ANY CODE TO MODIFY THE RPL IS BYPASSED IF    */ 02350000
.* /*      THE RPL IS ALREADY ACTIVE.                            @L1C*/ 02400000
.* /*                                                                */ 02450000
.* /*  PROCESSOR: ASSEMBLER                                          */ 02500000
.* /*                                                                */ 02550000
.* /*  CREATED BY:                                                   */ 02600000
.* /*                                                                */ 02650000
.* /*  INTERNAL MACROS:                                              */ 02700000
.* /*      IST6MCAL,IST6MCDA,IST6MCSE,IST6MCRE,IST6MCPR,IST6MCRJ,    */ 02750000
.* /*      IST6MCCK,IST6MCRF,IST6MCRS,IST6MCOC,IST6MCER,IST6MCUA,    */ 02800000
.* /*      IST6MCSS,IST6MCSX,IST6MCRX,IST6MCTE,IST6MCPA,IST6MCSF     */ 02833300
.*/*       IST6MCSR                                              @D1C*/ 02866600
.* /*                                                                */ 02900000
.* /*  EXTERNAL REFERENCES: NONE                                     */ 02950000
.* /*                                                                */ 03000000
.* /*  CHANGE ACTIVITY:                                              */ 03050000
.* /*    09/03/86 - DP0053 ALLOW USERFLD ON OPRCNTL          @P041406*/ 03100000
.* /*    07/11/88 - ACCEPT NEW CD= KEYWORD ON RECEIVE        @P058398*/ 03150000
.* /*    09/07/88 - CORRECT MISPELLED LOGMODE KEYWORD        @P060481*/ 03200000
.* /*                                                                */ 03250000
.* /* $MAC(APPCCMD),COMP(API),PROD(VTAM): LU6.2 FUNCTION REQUEST     */ 03300000
.* /*                                                                */ 03350000
.* /* FLAG REASON   RELEASE DATE   ORIGIN  FLAG DESCRIPTORS          */ 03400000
.* /* ---- -------- ------- ------ ------  ------------------------- */ 03450000
.* /* $F1= FS1@@CLD HVT3302 880425 255471: SYNCPOINT SUPPORT         */ 03500000
.* /* $F2= RCR0004  HVT3302 880907 255471: SYNCPOINT RCR SUPPORT     */ 03550000
.* /* $Q1= P063278  HVT3302 881205 255471: IMPLEMENT SESSION         */ 03600000
.* /*                                      DEACTIVATION DELAYED      */ 03650000
.* /*                                      FUNCTION                  */ 03700000
.* /* $Q2= P064461  HVT3302 890116 460025: SPLIT RESETRCV INVALIDS   */ 03750000
.* /* $Q3= P064622  HVT3302 890118 460025: REMOVE RESYNC PRIORITY    */ 03800000
.* /* $BA= ACC@@AMS HVT3401 891025 615520: PL/AS CONVERSION          */ 03850000
.* /* $B1= AE@@@AMS HVT3401 890707 460025: SELECTIVE DATA ENCRYPTION */ 03900000
.* /* $B2= AP@@@CLD HVT3401 890519 496698: PERSISTENT LU-LU SESSION  */ 03950000
.* /* $KF= S4N@@CLD HATAPPN 910326 692313: CP-CP SESSIONS            */ 04000000
.* /* $KG= NQNSTG2  NQNAME2 910711 007643: ENHANCED NQN SUPPORT (2)  */ 04050000
.* /* $I1= BD@@@MST APPCE03 911021 510689: APPC Deallocate queueing  */ 04100000
.* /* $I2= FF@@@MST APPCFDX 911120 879315: APPC Full-Duplex support  */ 04150000
.* /* $I3= FT@@@MST APPCTST 910217 510689: APPC TESTSTAT             */ 04200000
.* /* $T1= P100610  NQNAME2 920228 879315: KEYWORD VALUE TOO LONG    */ 04250000
.* /* $U2= P103324  APPCFDX 920710 879315: Latest code not REQRELed  */ 04300000
.* /* $L1= KA@@@PLD APPCRR  930716 446638: DCE Security Services     */ 04350000
.* /* $U3= P110887  GENRES  931024 879315: Generic Resource support  */ 04400000
.* /* $U4= P111572  GENRES  931029 879315: Split 6MCRE INVALKW list  */ 04450000
.* /* $Y1= P114780  APPCRR  940518 576146: DCE Security Services     */ 04500000
.* /* $L2= KA@DR006 APPCRR  940713 576146: Vector Format             */ 04550000
.* /* $D1= IA@@@MST V51APPC 941025 941213: APPCCMD enhancements      */ 04575000
.* /* $D2= ID@@@MST FPAPI   950306 143576: Fast Path API for APPC    */ 04587500
.* /*                                                                */ 04600000
.* /***** END OF SPECIFICATIONS **************************************/ 04650000
.*                                                                      04700000
.* A-000000-999999                                             @R495810 04750000
.*                                                                      04800000
.*     THE VALUE 1 SET TO THE FOLLOWING INDICATOR MEANS THAT RPL IS     04850000
.*     SPECIFIED, EXPANSION CODE CAN BE GENERATED. THE VALUE 0 WILL     04900000
.*     MEAN THAT RPL IS NOT SPECIFIED, NO CODE CAN BE GENERATED.        04950000
.*                                                                      05000000
         GBLB  &ISTGEN                      GENERATE CODE INDICATOR     05050000
.*                                                                      05100000
.*     THE FOLLOWING FLAGS ARE USED TO ENSURE THAT THE COPYRIGHT        05150000
.*     STATEMENTS OF EVERY DIFFERENT MACRO ARE GENERATED AT THE         05200000
.*     FIRST INVOCATION ONLY                                            05250000
.*                                                                      05300000
         GBLB  &ISTAPPC                     APPCCMD CALL INDICATOR      05350000
         GBLB  &ISTAL                       IST6MCAL CALL INDICATOR     05400000
         GBLB  &ISTCK                       IST6MCCK CALL INDICATOR     05450000
         GBLB  &ISTDA                       IST6MCDA CALL INDICATOR     05500000
         GBLB  &ISTER                       IST6MCER CALL INDICATOR     05550000
         GBLB  &ISTOC                       IST6MCOC CALL INDICATOR     05600000
         GBLB  &ISTPA                      IST6MCPA CALL INDICATOR @L1A 05650000
         GBLB  &ISTPR                       IST6MCPR CALL INDICATOR     05700000
         GBLB  &ISTRE                       IST6MCRE CALL INDICATOR     05750000
         GBLB  &ISTRF                       IST6MCRF CALL INDICATOR     05800000
         GBLB  &ISTRJ                       IST6MCRJ CALL INDICATOR     05850000
         GBLB  &ISTRS                       IST6MCRS CALL INDICATOR     05900000
         GBLB  &ISTSE                       IST6MCSE CALL INDICATOR     05950000
         GBLB  &ISTUA                       IST6MCUA CALL INDICATOR     06000000
         GBLB  &ISTUC                       IST6MCUC CALL INDICATOR     06050000
         GBLB  &ISTUI                       IST6MCUI CALL INDICATOR     06100000
         GBLB  &ISTUP                       IST6MCUP CALL INDICATOR     06150000
         GBLB  &ISTSF                      IST6MCSF CALL INDICATOR @L1A 06200000
         GBLB  &ISTSS                       IST6MCSS CALL INDICATOR     06250000
         GBLB  &ISTRX                      IST6MCRX CALL INDICATOR @I2A 06300000
         GBLB  &ISTSX                      IST6MCSX CALL INDICATOR @I2A 06350000
         GBLB  &ISTTE                      IST6MCTE CALL INDICATOR @I3A 06400000
         GBLB  &ISTSR                      IST6MCSR CALL INDICATOR @D1A 06425000
.*                                                                      06450000
&ISTGEN  SETB  1                                                        06500000
         AIF   (&ISTAPPC EQ 1).CKINVOP                                  06550000
&ISTAPPC SETB  1                                                        06600000
.CKINVOP AIF   (N'&SYSLIST EQ 0).CKRPL      POSITIONAL OPERANDS INVALID 06650000
         IST6MCER 7                                                     06700000
.CKRPL   ANOP                               CHECK REQUIRED PARAMETERS   06750000
         AIF   ('&RPL' NE '').CKCTL                                     06800000
         IST6MCER 1,RPL                                                 06850000
&ISTGEN  SETB  0                                                        06900000
.CKCTL   ANOP                                                           06950000
         AIF   ('&CONTROL' NE '').VALCTL                                07000000
         IST6MCER 1,CONTROL                                             07050000
         MEXIT                                                          07100000
.VALCTL  ANOP                                                           07150000
         AIF   ('&CONTROL' EQ 'ALLOC').GENCODE                          07200000
         AIF   ('&CONTROL' EQ 'CHECK').GENCODE                          07250000
         AIF   ('&CONTROL' EQ 'RESETRCV').GENCODE                       07300000
         AIF   ('&CONTROL' EQ 'DEALLOC').GENCODE                        07350000
         AIF   ('&CONTROL' EQ 'DEALLOCQ').GENCODE                  @I1A 07400000
         AIF   ('&CONTROL' EQ 'OPRCNTL').GENCODE                        07450000
         AIF   ('&CONTROL' EQ 'PREALLOC').GENCODE                  @L1A 07500000
         AIF   ('&CONTROL' EQ 'PREPRCV').GENCODE                        07550000
         AIF   ('&CONTROL' EQ 'RECEIVE').GENCODE                        07600000
         AIF   ('&CONTROL' EQ 'REJECT').GENCODE                         07650000
         AIF   ('&CONTROL' EQ 'RCVFMH5').GENCODE                        07700000
         AIF   ('&CONTROL' EQ 'SEND').GENCODE                           07750000
         AIF   ('&CONTROL' EQ 'SENDFMH5').GENCODE                  @L1A 07800000
         AIF   ('&CONTROL' EQ 'SETSESS').GENCODE                   @F2A 07850000
         AIF   ('&CONTROL' EQ 'RCVEXPD').GENCODE                   @I2A 07900000
         AIF   ('&CONTROL' EQ 'SENDEXPD').GENCODE                  @I2A 07950000
         AIF   ('&CONTROL' EQ 'TESTSTAT').GENCODE                  @I3A 08000000
         AIF   ('&CONTROL' EQ 'SENDRCV').GENCODE                   @D1A 08025000
         IST6MCER 2,CONTROL,&CONTROL                                    08050000
         MEXIT                                                          08100000
.GENCODE ANOP                                                           08150000
         AIF   (NOT &ISTGEN).CKCHECK                                    08200000
.CKRPL1  ANOP                                                           08250000
         AIF   ('&RPL'(1,1) NE '(').CKRPL2  BRANCH IF NOT REGISTER FORM 08300000
         AIF   ('&RPL' EQ '(1)').ENDRPL     NO LR INSTRUCTION NECESSARY 08350000
&NAME    LR    1,&RPL(1)                    LOAD RPL ADDRESS IN REG1    08400000
         AGO   .CKCHECK                                                 08450000
.CKRPL2  ANOP                                                           08500000
&NAME    LA    1,&RPL                       LOAD RPL ADDRESS IN REG1    08550000
         AGO   .CKCHECK                                                 08600000
.ENDRPL  ANOP                                                           08650000
         AIF   ('&NAME' EQ '').CKCHECK                                  08700000
&NAME    EQU   *                                                        08750000
*                                                                       08800000
.CKCHECK ANOP                                                           08850000
         AIF   ('&CONTROL' NE 'CHECK').RPLACT                           08900000
         IST6MCCK INVALP1=(AREA=&AREA,LOGMODE=&LOGMODE,OPTCD=&OPTCD,ECBX08950000
               =&ECB,CONVID=&CONVID,LUNAME=&LUNAME,SENSE=&SENSE,EXIT=&EX09000000
               XIT,BRANCH=&BRANCH,AAREA=&AAREA,ACB=&ACB,FILL=&FILL,TYPEX09050000
               =&TYPE,QUALIFY=&QUALIFY,LOCKS=&LOCKS,AREALEN=&AREALEN,USX09100000
               ERFLD=&USERFLD,NAMEUSE=&NAMEUSE),                       X09150000
               INVALP2=(CONMODE=&CONMODE,CONFTXT=&CONFTXT,ARG=&ARG,RECLX09200000
               EN=&RECLEN,SESSID=&SESSID,SESSIDL=&SESSIDL,DEACTYP=&DEACX09250000
               TYP,CRYPT=&CRYPT,LIST=&LIST,CGID=&CGID,NETID=&NETID,CONXX09300000
               MOD=&CONXMOD,RTSRTRN=&RTSRTRN,VTRINA=&VTRINA,VTRINL=&VTRX09350000
               INL,VTROUTA=&VTROUTA,VTROUTL=&VTROUTL)              @D2C 09400000
         AIF   (NOT &ISTGEN).END                                        09450000
         AGO   .RTNCK                                                   09500000
.RPLACT  ANOP                                                           09550000
         AIF   (NOT &ISTGEN).CKCTL01                                    09600000
         TM    RPLACTIV-IFGRPL(1),X'FF'     IS THE RPL ACTIVE?          09650000
         BO    IST6&SYSNDX                  YES BR AROUND MODIFY CODE   09700000
*                                                                       09750000
.CKAAREA ANOP                                                           09800000
         AIF   ('&AAREA' EQ '').LARPL6                                  09850000
         AIF   ('&AAREA'(1,1) NE '(').CKAARE1                           09900000
         LR    14,&AAREA(1)                                             09950000
         AGO   .RPL6ACT                                                 10000000
.CKAARE1 ANOP                                                           10050000
         LA    14,&AAREA                                                10100000
.RPL6ACT ANOP                                                           10150000
         TM    RPL6ACTV-ISTRPL6X(14),X'FF'  IS THE RPL6 ACTIVE?         10200000
         BO    IST6&SYSNDX                  YES BR AROUND MODIFY CODE   10250000
*                                                                       10300000
         ST    14,RPLAAREA-IFGRPL(1)        STORE AAREA ADDRESS IN RPL  10350000
         ST    1,RPL6RPL-ISTRPL6X(14)    STORE RPL ADDRESS TO APPC AREA 10400000
         LA    15,L'RPL6AREA                GET AAREA LENGTH   @P030295 10450000
         ST    15,RPLAARLN-IFGRPL(1)        STORE AAREA LENGTH IN RPL   10500000
         AGO   .CKACB                                                   10550000
.LARPL6  ANOP                                                           10600000
         L     14,RPLAAREA-IFGRPL(1)                                    10650000
         ST    1,RPL6RPL-ISTRPL6X(14)    STORE RPL ADDRESS TO APPC AREA 10700000
*                                                                       10750000
.CKACB   ANOP                                                           10800000
         AIF   ('&ACB' EQ '').CKCTL01                                   10850000
         IST6MCUA KWVAL=&ACB,LOC=RPLDACB-IFGRPL,BASEREG=1,             X10900000
               KW=ACB_ADDRESS                                           10950000
.*                                          STORE ACB ADDRESS IN RPL    11000000
.CKCTL01 ANOP                                                           11050000
.*                      ****  CONTROL=ALLOC  ****                       11100000
.*                                                                      11150000
         AIF   ('&CONTROL' NE 'ALLOC').ALEND                            11200000
         IST6MCAL AREA=&AREA,RECLEN=&RECLEN,OPTCD=&OPTCD,ECB=&ECB,     X11250000
               EXIT=&EXIT,BRANCH=&BRANCH,LOGMODE=&LOGMODE,             X11300000
               CONMODE=&CONMODE,USERFLD=&USERFLD,LUNAME=&LUNAME,       X11350000
               QUALIFY=&QUALIFY,CGID=&CGID,NETID=&NETID,               X11400000
               CONXMOD=&CONXMOD,RTSRTRN=&RTSRTRN,NAMEUSE=&NAMEUSE,     X11450000
               VTRINA=&VTRINA,VTRINL=&VTRINL,VTROUTA=&VTROUTA,         X11483300
               VTROUTL=&VTROUTL,                                       X11516600
               INVALKW=(FILL=&FILL,AREALEN=&AREALEN,CONVID=&CONVID,LOCKX11550000
               S=&LOCKS,CONFTXT=&CONFTXT,ARG=&ARG,TYPE=&TYPE,CD=&CD,SESX11600000
               SID=&SESSID,SESSIDL=&SESSIDL,DEACTYP=&DEACTYP,CRYPT=&CRYX11650000
               PT,LIST=&LIST,SENSE=&SENSE)                         @D2C 11700000
         AGO   .EXIT                                                    11750000
.ALEND   ANOP                                                           11800000
.*                      ****  CONTROL=DEALLOC(Q)  ****                  11850000
.*                                                                      11900000
         AIF   ('&CONTROL' EQ 'DEALLOCQ').DAQ                      @I1A 11950000
         AIF   ('&CONTROL' NE 'DEALLOC').DAEND                          12000000
.DAQ     ANOP                                                      @I1A 12050000
         IST6MCDA AREA=&AREA,RECLEN=&RECLEN,OPTCD=&OPTCD,ECB=&ECB,     X12100000
               EXIT=&EXIT,BRANCH=&BRANCH,CONVID=&CONVID,SENSE=&SENSE,  X12150000
               QUALIFY=&QUALIFY,CONMODE=&CONMODE,CONXMOD=&CONXMOD,     X12200000
               CRYPT=&CRYPT,CONTROL=&CONTROL,VTRINA=&VTRINA,           X12250000
               VTRINL=&VTRINL,VTROUTA=&VTROUTA,VTROUTL=&VTROUTL,       X12300000
               INVALP1=(LOGMODE=&LOGMODE,CONFTXT=&CONFTXT,LOCKS=&LOCKS,X12350000
               FILL=&FILL,AREALEN=&AREALEN,USERFLD=&USERFLD,TYPE=&TYPE,X12400000
               LUNAME=&LUNAME,ARG=&ARG,CD=&CD,SESSID=&SESSID),         X12450000
               INVALP2=(SESSIDL=&SESSIDL,DEACTYP=&DEACTYP,LIST=&LIST,  X12500000
               CGID=&CGID,NETID=&NETID,RTSRTRN=&RTSRTRN,               X12550000
               NAMEUSE=&NAMEUSE)                                   @D2C 12600000
         AGO   .EXIT                                                    12650000
.DAEND   ANOP                                                           12700000
.*                      ****  CONTROL=OPRCNTL  ****                     12750000
.*                                                                      12800000
         AIF   ('&CONTROL' NE 'OPRCNTL').OCEND                          12850000
         IST6MCOC AREALEN=&AREALEN,OPTCD=&OPTCD,CONFTXT=&CONFTXT,      X12900000
               EXIT=&EXIT,BRANCH=&BRANCH,RECLEN=&RECLEN,ECB=&ECB,      X12950000
               LUNAME=&LUNAME,QUALIFY=&QUALIFY,LOGMODE=&LOGMODE,       X13000000
               AREA=&AREA,ARG=&ARG,USERFLD=&USERFLD,LIST=&LIST,        X13050000
               NETID=&NETID,NAMEUSE=&NAMEUSE,VTROUTL=&VTROUTL,         X13100000
               VTRINA=&VTRINA,VTRINL=&VTRINL,VTROUTA=&VTROUTA,         X13150000
               INVALKW=(CONMODE=&CONMODE,SENSE=&SENSE,CONVID=&CONVID,LOX13200000
               CKS=&LOCKS,TYPE=&TYPE,FILL=&FILL,CD=&CD,SESSID=&SESSID,SX13250000
               ESSIDL=&SESSIDL,DEACTYP=&DEACTYP,CRYPT=&CRYPT,CGID=&CGIDX13300000
               ,CONXMOD=&CONXMOD,RTSRTRN=&RTSRTRN)                 @D2C 13350000
         AGO   .EXIT                                                    13400000
.OCEND   ANOP                                                           13450000
.*                      ****  CONTROL=PREALLOC  ****               @L1A 13500000
.*                                                                 @L1A 13550000
         AIF   ('&CONTROL' NE 'PREALLOC').PAEND                    @L1A 13600000
         IST6MCPA BRANCH=&BRANCH,CGID=&CGID,CONMODE=&CONMODE,          X13650000
               CONXMOD=&CONXMOD,ECB=&ECB,EXIT=&EXIT,LOGMODE=&LOGMODE,  X13700000
               LUNAME=&LUNAME,NETID=&NETID,OPTCD=&OPTCD,               X13750000
               QUALIFY=&QUALIFY,RTSRTRN=&RTSRTRN,USERFLD=&USERFLD,     X13800000
               NAMEUSE=&NAMEUSE,VTRINA=&VTRINA,VTRINL=&VTRINL,         X13850000
               VTROUTA=&VTROUTA,VTROUTL=&VTROUTL,                      X13875000
               INVALP1=(AREA=&AREA,AREALEN=&AREALEN,ARG=&ARG,CD=&CD,   X13900000
               CONFTXT=&CONFTXT,CONVID=&CONVID,CRYPT=&CRYPT,           X13950000
               DEACTYP=&DEACTYP,FILL=&FILL,LIST=&LIST),                X14000000
               INVALP2=(LOCKS=&LOCKS,RECLEN=&RECLEN,SENSE=&SENSE,      X14050000
               SESSID=&SESSID,SESSIDL=&SESSIDL,TYPE=&TYPE)         @D2C 14100000
         AGO   .EXIT                                               @L1A 14150000
.PAEND   ANOP                                                           14200000
.*                      ****  CONTROL=PREPRCV  ****                     14250000
.*                                                                      14300000
         AIF   ('&CONTROL' NE 'PREPRCV').PREND                          14350000
         IST6MCPR AREA=&AREA,RECLEN=&RECLEN,OPTCD=&OPTCD,ECB=&ECB,     X14400000
               EXIT=&EXIT,BRANCH=&BRANCH,CONMODE=&CONMODE,CRYPT=&CRYPT,X14450000
               CONVID=&CONVID,QUALIFY=&QUALIFY,LOCKS=&LOCKS,           X14500000
               CONXMOD=&CONXMOD,VTRINA=&VTRINA,VTRINL=&VTRINL,         X14550000
               VTROUTA=&VTROUTA,VTROUTL=&VTROUTL,                      X14575000
               INVALP1=(USERFLD=&USERFLD,LOGMODE=&LOGMODE,FILL=&FILL,ARX14600000
               EALEN=&AREALEN,SENSE=&SENSE,LUNAME=&LUNAME,TYPE=&TYPE,COX14650000
               NFTXT=&CONFTXT,ARG=&ARG,CD=&CD,SESSID=&SESSID),         X14700000
               INVALP2=(SESSIDL=&SESSIDL,DEACTYP=&DEACTYP,LIST=&LIST,  X14750000
               CGID=&CGID,NETID=&NETID,RTSRTRN=&RTSRTRN,               X14800000
               NAMEUSE=&NAMEUSE)                                   @D2C 14850000
         AGO   .EXIT                                                    14900000
.PREND   ANOP                                                           14950000
.*                      ****  CONTROL=RECEIVE  ****                     15000000
.*                                                                      15050000
         AIF   ('&CONTROL' NE 'RECEIVE').REEND                          15100000
         IST6MCRE OPTCD=&OPTCD,ECB=&ECB,CONMODE=&CONMODE,FILL=&FILL,   X15150000
               EXIT=&EXIT,BRANCH=&BRANCH,AREA=&AREA,AREALEN=&AREALEN,  X15200000
               CONVID=&CONVID,QUALIFY=&QUALIFY,CD=&CD,CONXMOD=&CONXMOD,X15250000
               VTRINA=&VTRINA,VTRINL=&VTRINL,VTROUTA=&VTROUTA,         X15283300
               VTROUTL=&VTROUTL,                                       X15316600
               INVALP1=(RECLEN=&RECLEN,LUNAME=&LUNAME,SENSE=&SENSE,    X15350000
               TYPE=&TYPE,CONFTXT=&CONFTXT,ARG=&ARG,USERFLD=&USERFLD,  X15400000
               LOCKS=&LOCKS,LOGMODE=&LOGMODE,SESSID=&SESSID,           X15450000
               SESSIDL=&SESSIDL,DEACTYP=&DEACTYP,CRYPT=&CRYPT),        X15500000
               INVALP2=(LIST=&LIST,CGID=&CGID,NETID=&NETID,            X15550000
               RTSRTRN=&RTSRTRN,NAMEUSE=&NAMEUSE)                  @D2C 15600000
         AGO   .EXIT                                                    15650000
.REEND   ANOP                                                           15700000
.*                      ****  CONTROL=RCVFMH5  ****                     15750000
.*                                                                      15800000
         AIF   ('&CONTROL' NE 'RCVFMH5').RFEND                          15850000
         IST6MCRF BRANCH=&BRANCH,AREA=&AREA,AREALEN=&AREALEN,          X15900000
               USERFLD=&USERFLD,OPTCD=&OPTCD,ECB=&ECB,EXIT=&EXIT,      X15950000
               CONMODE=&CONMODE,CONXMOD=&CONXMOD,RTSRTRN=&RTSRTRN,     X16000000
               QUALIFY=&QUALIFY,VTRINA=&VTRINA,VTRINL=&VTRINL,         X16050000
               FILL=&FILL,CD=&CD,VTROUTA=&VTROUTA,VTROUTL=&VTROUTL,    X16075000
               INVALP1=(LUNAME=&LUNAME,SENSE=&SENSE,CONFTXT=&CONFTXT,REX16100000
               CLEN=&RECLEN,CONVID=&CONVID,                            X16150000
               LOCKS=&LOCKS,LOGMODE=&LOGMODE,TYPE=&TYPE,ARG=&ARG),     X16200000
               INVALP2=(SESSID=&SESSID,SESSIDL=&SESSIDL,               X16250000
               DEACTYP=&DEACTYP,CRYPT=&CRYPT,LIST=&LIST,               X16300000
               CGID=&CGID,NETID=&NETID,NAMEUSE=&NAMEUSE)           @D2C 16350000
         AGO   .EXIT                                                    16400000
.RFEND   ANOP                                                           16450000
.*                      ****  CONTROL=REJECT  ****                      16500000
.*                                                                      16550000
         AIF   ('&CONTROL' NE 'REJECT').RJEND                           16600000
         IST6MCRJ OPTCD=&OPTCD,ECB=&ECB,CONVID=&CONVID,SENSE=&SENSE,   X16650000
               EXIT=&EXIT,BRANCH=&BRANCH,SESSID=&SESSID,SESSIDL=&SESSIDX16700000
               L,QUALIFY=&QUALIFY,DEACTYP=&DEACTYP,CGID=&CGID,         X16750000
               VTRINA=&VTRINA,VTRINL=&VTRINL,VTROUTA=&VTROUTA,         X16783300
               VTROUTL=&VTROUTL,                                       X16816600
               INVALP1=(CONMODE=&CONMODE,USERFLD=&USERFLD,LOCKS=&LOCKS,X16850000
               LOGMODE=&LOGMODE,AREA=&AREA,AREALEN=&AREALEN,TYPE=&TYPE,X16900000
               FILL=&FILL,ARG=&ARG,CONFTXT=&CONFTXT,RECLEN=&RECLEN),   X16950000
               INVALP2=(LUNAME=&LUNAME,CD=&CD,CRYPT=&CRYPT,LIST=&LIST,NX17000000
               ETID=&NETID,CONXMOD=&CONXMOD,RTSRTRN=&RTSRTRN,          X17050000
               NAMEUSE=&NAMEUSE)                                   @D2C 17100000
         AGO   .EXIT                                                    17150000
.RJEND   ANOP                                                           17200000
.*                      ****  CONTROL=RESETRCV  ****                    17250000
.*                                                                      17300000
         AIF   ('&CONTROL' NE 'RESETRCV').RSEND                         17350000
         IST6MCRS CONMODE=&CONMODE,CONXMOD=&CONXMOD,OPTCD=&OPTCD,      X17400000
               ECB=&ECB,EXIT=&EXIT,BRANCH=&BRANCH,CONVID=&CONVID,      X17450000
               QUALIFY=&QUALIFY,VTRINA=&VTRINA,VTRINL=&VTRINL,         X17500000
               VTROUTA=&VTROUTA,VTROUTL=&VTROUTL,                      X17525000
               INVALP1=(AREALEN=&AREALEN,LOCKS=&LOCKS,USERFLD=&USERFLD,X17550000
               LOGMODE=&LOGMODE,RECLEN=&RECLEN,CONFTXT=&CONFTXT,LUNAME=X17600000
               &LUNAME,FILL=&FILL,TYPE=&TYPE,SENSE=&SENSE,             X17650000
               AREA=&AREA,ARG=&ARG),                                   X17700000
               INVALP2=(CD=&CD,SESSID=&SESSID,SESSIDL=&SESSIDL,DEACTYP=X17750000
               &DEACTYP,CRYPT=&CRYPT,LIST=&LIST,CGID=&CGID,NETID=&NETIDX17800000
               ,RTSRTRN=&RTSRTRN,NAMEUSE=&NAMEUSE)                 @D2C 17850000