*PROPRIETARY V3 STATEMENT                                             * 00050000
*LICENSED MATERIALS - PROPERTY OF IBM                                 * 00100000
*"RESTRICTED MATERIALS OF IBM"                                        * 00150000
*5695-DF1                                                             * 00200000
*(C) COPYRIGHT 1982,1995  IBM CORP.                                   * 00250000
*END PROPRIETARY V3 STATEMENT                                         * 00300000
         MACRO                                                          02000000
&NAME    ATLAS &PARMADR=,&CHANPRG=R,&CNTPTR=P,&WRITS=                   04000000
         AIF   ('&PARMADR' EQ '').ERROR1                                06000000
         AIF   ('&PARMADR'(1,1) EQ '(').ISAREG                          08000000
&NAME    L     1,&PARMADR  LOAD ADDRESS OF PARM LIST                    10000000
         AGO   .SKIP                                                    12000000
.ISAREG  AIF   ('&PARMADR(1)' EQ '1').PUTLBL                            14000000
&NAME    LR    1,&PARMADR(1)  LOAD ADDRESS OF PARMLIST                  16000000
         AGO   .SKIP                                                    18000000
.PUTLBL  ANOP                                                           20000000
&NAME    MVI   0(1),X'00'  CLEAR OPTION BYTES                           22000000
         AGO   .HOP                                                     24000000
.SKIP    MVI   0(1),X'00'  CLEAR OPTION BYTE                            26000000
.HOP     MVI   4(1),X'00'                                               28000000
         AIF   ('&CHANPRG' EQ 'NR').TURNON                              30000000
         AIF   ('&CHANPRG' NE 'R').ERROR2                               32000000
         AGO   .JUMP                                                    34000000
.TURNON  ANOP                                                           36000000
         OI    0(1),X'80'  TURN ON NOT RE-EX BIT                        38000000
.JUMP    AIF   ('&CNTPTR' EQ 'P').SETBIT                                40000000
         AIF   ('&CNTPTR' NE 'F').ERROR3                                42000000
         AGO   .STEP                                                    44000000
.SETBIT  ANOP                                                           46000000
         OI    4(1),X'40'  INDICATE PARTIAL COUNT                       48000000
.STEP    AIF   ('&WRITS' EQ '').ALLOVER                                 50000000
         AIF   ('&WRITS' EQ 'YES').YEP                                  52000000
         AIF   ('&WRITS' NE 'NO').ERROR4                                54000000
         OI    4(1),X'10' SET FOR NOT WRITE SPECIAL                     56000000
         AGO   .ALLOVER                                                 58000000
.YEP     ANOP                                                           60000000
         OI    4(1),X'20' SET FOR WRITE SPECIAL                         62000000
.ALLOVER ANOP                                                           64000000
         SVC 86   ISSUE ATLAS SVC                                       66000000
         MEXIT                                                          68000000
.ERROR1  MNOTE 12,'IHB001  PARMADR OPERAND REQ''D-NOT SPECIFIED'        70000000
         AGO   .END                                                     72000000
.ERROR2  MNOTE 12,'IHB002  INVALID CHANPRG OPERAND SPECIFIED-&CHANPRG'  74000000
         AGO   .END                                                     76000000
.ERROR3  MNOTE 12,'IHB002 INVALID CNTPTR OPERAND SPECIFIED-&CNTPTR'     78000000
         AGO   .END                                                     80000000
.ERROR4  MNOTE 12,'IHB002 INVALID WRITS OPERAND SPECIFIED-&WRITS'       82000000
.END     MEND                                                           84000000
