*%/*                                                                    00050000
         MACRO                                                          01150000
&NAME    ATTACH &EP=,&EPLOC=,&DE=,&DCB=,&PARAM=,&VL=,&ECB=,        I270X01200000
               &GSPV=,&KEY=PROP,&GSPL=,&SHSPL=,&ETXR=,&LPMOD=,     I270X01250000
               &DPMOD=,&MF=I,&SF=I,&SHSPV=,&SM=PROB,&SZERO=YES,    I270X01300000
               &JSTCB=NO,&SVAREA=YES,&ROLL=(YES,NO),&HIARCHY=,     I270X01350000
               &JSCB=,&GIVEJPQ=NO,&TASKLIB=,&TSLOGON=NO,          20021X01400000
               &STAI=,&PURGE=,&ASYNCH=,                          Y02752X01450000
               &ESTAI=,&TERM=NO,&NSHSPL=,&NSHSPV=,&RSAPF=NO,   @Z40RP9BX01500000
               &RELATED=,                                              X01550000
               &LSQA=0,&DISP=YES,&TID=0,&TQE=,&FPREGSA=,         X02050X01583300
               &ALCOPY=,                                           @L1AX01594600
               &TCB=                                               @L2A 01605900
         AGO   .SKIP                                                    01617300
**** START OF SPECIFICATIONS ****************************************** 01618000
*                                                                       01618700
*01*  MACRO NAME: ATTACH                                                01619400
*                                                                       01620100
*01*  COPYRIGHT =                                                       01620800
*                                                                       01621500
*      5647-A01                                                         01622200
*      THIS MACRO IS "RESTRICTED MATERIALS OF IBM"                      01622900
*      (C)COPYRIGHT IBM CORP. 1981, 2000                                01623600
*      LICENSED MATERIALS - PROPERTY OF IBM                             01624300
*                                                                       01626400
*01*  STATUS: HBB7703                                                   01626600
*                                                                       01626800
*01*  EXTERNAL CLASSIFICATION: PI                                       01627000
*01*  END OF EXTERNAL CLASSIFICATION:                                   01627200
*                                                                       01627800
*01*  FUNCTION:                                                         01628500
*        Provide the interface to the ATTACH subtask service routine    01629200
*        (IEAVEAT0) via SVC 42                                          01629900
*                                                                       01630600
*                                                                       01631300
*01*  COMPONENT: SC1CL (Task Management)                                01632000
*                                                                       01632700
*01*  MACLIB: AMACLIB                                                   01633400
*                                                                       01634100
*01*  CHANGE ACTIVITY:                                                  01634800
*    MACCOMP Y-1 SC1CL/PZD81                                            01635500
*    MACSTAT Y-1 80020/G860PXB                                          01636200
*    MACSTAT Y-1 83229/OZ72420 - ENSURE THAT THE EXECUTE     @ZA72420   01636900
*                                FORM DOES NOT INVALIDLY     @ZA72420   01637600
*                                RESET BITS IN THE PLIST     @ZA72420   01638300
*                                PREVIOUSLY SET BY THE LIST  @ZA72420   01639000
*                                FORM.                       @ZA72420   01639700
*                                                                       01640400
*   $P1=PAB0182  JBB2110  821112  PD16FH:  BIT3 OF ATFLAGS2             01641100
*                                          NO LONGER SET OFF            01641800
*   $L1=AR       HBB3310  860106  PD16Q9:  ACCESS REGISTERS             01642500
*   $D1=DCR0049  HBB3310  860707  PD16Q9:  ATTACHX SUPPORT              01643200
*   $L2=DBFMC    HBB4430  910807  PD16FH:  STATUS REWRITE               01643400
*   $P2=PKB0146  HBB4430  911106  PD16FH:  ATFORMNM for DISP=RESET      01643600
*   $P3=PKB0754  HBB4430  920629  PD16CU:  Set ATNFORM correctly for    01643700
*                                          DISP=RESET                   01643800
*   $L3=64BITSUP HBB7703 981204 PD00XB: ESAME                           01644000
*                                                                       01644200
**** END OF SPECIFICATIONS *****************************************    01644600
.SKIP    ANOP  ,                                                        01645300
         GBLC  &SYSSPLV              GLOBAL FOR SPLEVEL MACRO  @G860PXZ 01650000
         SPLEVEL TEST                OBTAIN DEFAULT SYSSPLV    @G860PXZ 01700000
         AIF   ('&SYSSPLV' EQ '1').LEVEL1 CHECK LEVEL TO GEN   @G860PXZ 01750000
         GBLB  &IHBSWA,&IHBSWB                                          01800000
         GBLC  &IHBNO                                                   01850000
         GBLC  &SYSASCE              ASC ENVIRONMENT               @L1A 01875000
         GBLC  &SYSAM64           AMODE                            @L3A 01877600
         GBLA  &SYSALVL           ARCHLVL                          @L3A 01880200
         SYSSTATE TEST            WHAT IS ASC ENVIRONMENT          @L1A 01882800
         AIF ('&SYSAM64' EQ 'YES').INVKATTACHX AMODE 64, ATTACHX   @L3A 01885400
         AIF (&SYSALVL GT 1).INVKATTACHX ESAME, ATTACHX            @L3A 01888000
         AIF   ('&SYSASCE' NE 'P').INVKATTACHX IF NOT PRIMARY ASC  @D1AX01890600
               .                             MODE, INVOKE ATTACHX       01893600
         LCLA  &A,&E,&F,&G,&L,&K,&X,&NUMB                               01900000
         LCLA  &NUMB1,&NUMB2,&NUMB3,&NUMB4                       Y02752 01950000
         LCLA  &NI52,&NI60                                     @ZA72420 02000000
         LCLB  &F52(8),&F60(8)                                 @ZA72420 02050000
         LCLB  &NUMB3B                                         @G860PXB 02100000
         LCLB  &SWSTAI,&SWESTAI                                  Y02752 02150000
         LCLC  &STAITYP,&STXADDR,&STPADDR                        Y02752 02200000
         LCLC  &H,&CHAR,&PARA,&FUDGE,&GNAME,&NSHSP             @G860PXB 02250000
         LCLC  &FORM#                FORMAT NUMBER             @G860PXB 02300000
         LCLC  &NICOPY               MASK TO TURN OFF ALCOPY BIT   @L1A 02350000
&F52(1)  SETB  1                     INITIALIZE NSHSPL BIT     @ZA72420 02400000
&F60(1)  SETB  1                     INITIALIZE DE BIT         @ZA72420 02450000
&F60(2)  SETB  1                     INITIALIZE GSPL BIT       @ZA72420 02500000
&F60(3)  SETB  1                     INITIALIZE SHSPL BIT      @ZA72420 02550000
&NICOPY  SETC  '1'                   INITIALIZE TO LEAVE ON BIT    @L1A 02600000
&FORM#   SETC  '1'                   INITIAL FORMAT NUMBER   @G860PXB*/ 02800000
* /* MACDATE   11/11/91                                          @L2C*/ 02850000
* /*                                                                    02900000
.********************************************************************** 02908300
.*   TEST FOR REQUEST TO RESET A SUBTASK VIA DISP=RESET WITH TCB      * 02916600
.********************************************************************** 02924900
         AIF (T'&TCB NE 'O').ATTCHD                                @L2A 02933200
         AIF ('&DISP' EQ 'RESET').ATTCHD                           @L2A 02941500
&SWSTAI  SETB  ('&STAI(1)' NE '' )   SWITCH VALUE 1 IF STAI      Y02752 02950000
&SWESTAI SETB  ('&ESTAI(1)' NE '' )  SWITCH VALUE 1 IF ESTAI     Y02752 03000000
         AIF   (&SWSTAI AND &SWESTAI).ERSTAI                     Y02752 03050000
         AIF   (NOT &SWESTAI).STTYP1                             Y02752 03100000
         AIF   (N'&ESTAI GT 2).ERROR                             Y02752 03150000
&STXADDR SETC  '&ESTAI(1)'        EXIT RTN ADDR                  Y02752 03200000
&STPADDR SETC  '&ESTAI(2)'        PARM LIST FOR EXIT RTN         Y02752 03250000
&STAITYP SETC  'ESTAI'                                           Y02752 03300000
         AGO   .STTYP2                                           Y02752 03350000
.STTYP1  AIF   (NOT &SWSTAI).STTYP2                              Y02752 03400000
         AIF   (N'&STAI GT 2).ERROR                              Y02752 03450000
&STXADDR SETC  '&STAI(1)'         EXIT RTN ADDR                  Y02752 03500000
&STPADDR SETC  '&STAI(2)'         PARM LIST FOR EXIT RTN         Y02752 03550000
&STAITYP SETC  'STAI'                                            Y02752 03600000
.STTYP2  ANOP                                                    Y02752 03650000
&IHBNO   SETC  '306'                                                    03700000
 AIF ('&HIARCHY' NE '' AND '&HIARCHY' NE '0'                           *03750000
               AND '&HIARCHY' NE '1').ERRHID                       LCS1 03800000
         AIF   ('&MF' EQ 'L' OR('&SF' EQ 'L' AND '&MF(1)' EQ 'E')).E1   03850000
         AIF   ('&SF' EQ 'L' AND '&PARAM' NE '').ERROR2                 03900000
         AIF   ('&EP' NE '' AND '&EPLOC' NE '').ERROR4                  03950000
         AIF   ('&EP' NE '' AND '&DE' NE '').ERROR4                     04000000
         AIF   ('&DE' NE '' AND '&EPLOC' NE '').ERROR4                  04050000
         AIF   ('&LPMOD' EQ '').CONTAAA                                 04100000
         AIF   ('&LPMOD'(1,1) EQ '-').ERROR7                            04150000
.CONTAAA ANOP                                                           04200000
         AIF   ('&DISP' NE 'YES' AND '&DISP' NE 'NO').ERDISP            04250000
         AIF   ('&LSQA' NE '0' AND (&SWSTAI OR &SWESTAI)).E2     Y02752 04300000
         AIF   ('&LSQA' NE '0' AND '&PURGE' NE '' ).E3           Y02752 04350000
         AIF   ('&LSQA' NE '0' AND '&ASYNCH' NE '' ).E4          Y02752 04400000
         AIF   ('&LSQA' NE '0' AND ('&SZERO' NE 'NO')).E5               04450000
         AIF   ('&GIVEJPQ' NE 'NO' AND '&LSQA' NE '0').E6               04500000
         AIF   ('&LSQA' NE '0' AND '&GSPV' NE '').E7                    04550000
         AIF   ('&LSQA' NE '0' AND '&GSPL' NE '').E8                    04600000
         AIF   ('&LSQA' NE '0' AND '&SHSPV' NE '').E9                   04650000
         AIF   ('&LSQA' NE '0' AND '&SHSPL' NE '').E10                  04700000
         AIF   ('&TQE' NE 'YES' AND '&TQE' NE 'NO' AND '&TQE' NE '').ERX04750000
               TQE                                               X02050 04800000
         AIF   ('&FPREGSA' NE 'YES' AND '&FPREGSA' NE 'NO' AND '&FPREGSX04850000
               A' NE '').ERFP                                    X02050 04900000
         AIF   ('&NSHSPL' NE '' AND '&NSHSPV' NE '').ERNSHSP     Y02752 04950000
         AIF   ('&TERM' NE 'YES' AND '&TERM' NE 'NO').ERTERM     Y02752 05000000
         AIF   ('&ALCOPY' NE 'YES' AND '&ALCOPY' NE 'NO' AND '&ALCOPY' X05004600
               NE '').ERALCPY                                      @L1A 05009200
.* HERE INITIALIZE VARIABLES &NUMB,&NUMB1,&NUMB2,&NUMB3,&NUMB4   Y02752 05050000
.* THESE MUST NOT BE ALTERED ONCE SET.                           Y02752 05100000
.* BYTE AT OFFSET DECIMAL 27 IS DEFINED BY &NUMB                 Y02752 05150000
         AIF   ('&DISP' EQ 'YES').NUMBX1                         Y02752 05200000
&NUMB    SETA  (&NUMB+128)        DISP=NO FLAG SET TO 1          Y02752 05250000
.NUMBX1  ANOP                                                    Y02752 05300000
         AIF   ('&JSCB' EQ '').NUMBX2                            Y02752 05350000
&NUMB    SETA  (&NUMB+64)         JSCB ADDRESS SPECIFIED FLAG    Y02752 05400000
.NUMBX2  ANOP                                                    Y02752 05450000
         AIF   ('&GIVEJPQ' EQ 'NO').NUMBX3                       Y02752 05500000
&NUMB    SETA  (&NUMB+32)         GIVEJPQ=YES FLAG SET TO 1      Y02752 05550000
.NUMBX3  ANOP                                                    Y02752 05600000
         AIF   ('&KEY' EQ 'PROP').NUMBX4                         Y02752 05650000
&NUMB    SETA  (&NUMB+16)         KEY=ZERO FLAG ON               Y02752 05700000
.NUMBX4  ANOP                                                    Y02752 05750000
         AIF   ('&SZERO' EQ 'YES').NUMBX5                        Y02752 05800000
&NUMB    SETA  (&NUMB+8)          SZERO=NO FLAG SET TO 1         Y02752 05850000
.NUMBX5  ANOP                                                    Y02752 05900000
         AIF   ('&SVAREA' EQ 'YES').NUMBX6                       Y02752 05950000
&NUMB    SETA  (&NUMB+4)          SVAREA=NO FLAG SET TO 1        Y02752 06000000
.NUMBX6  ANOP                                                    Y02752 06050000
         AIF   ('&JSTCB' NE 'YES').NUMBX7                        Y02752 06100000
&NUMB    SETA  (&NUMB+2)          JSTCB=YES FLAG SET TO 1        Y02752 06150000
.NUMBX7  ANOP                                                    Y02752 06200000
         AIF   ('&SM' NE 'SUPV').NUMBX8                          Y02752 06250000
&NUMB    SETA  (&NUMB+1)          SM=SUPV FLAG ON                Y02752 06300000
.NUMBX8  ANOP                     BYTE IS COMPLETE               Y02752 06350000
.* BYTE AT OFFSET DECIMAL 60 IS DEFINED BY &NUMB1              @G860PXB 06400000
&NUMB1   SETA  0                                               @G860PXB 06450000
         AIF   ('&TASKLIB' EQ '').NUMB1X2                        Y02752 06500000
&NUMB1   SETA  (&NUMB1+2)         TASKLIB ADDRESS SPECIFIED FLAG Y02752 06550000
.NUMB1X2 ANOP                                                    Y02752 06600000
         AIF   (NOT (&SWSTAI OR &SWESTAI) ).NUMB1X3              Y02752 06650000
&NUMB1   SETA  (&NUMB1+1)         FLAG FOR STAI OR ESTAI         Y02752 06700000
.NUMB1X3 ANOP                     BYTE IS COMPLETE               Y02752 06750000
.* BYTE AT OFFSET DECIMAL 52 IS DEFINED BY &NUMB3              @G860PXB 06800000
         AIF   (NOT (&SWSTAI OR &SWESTAI)  ).NUMB3X1             Y02752 06850000
.* PURGE BITS (BITS 6 AND 7) ARE 00, CORRECT FOR PURGE=QUIESCE   Y02752 06900000
         AIF   ('&PURGE' EQ '').NOPRGE                           Y02752 06950000
         AIF   ('&PURGE' EQ 'QUIESCE').PRGEOK                    Y02752 07000000
&NUMB3   SETA  1                  SET TO PURGE=HALT FLAGS        Y02752 07050000
         AIF   ('&PURGE' EQ 'HALT').PRGEOK                       Y02752 07100000
&NUMB3   SETA  2                  SET TO PURGE=NONE FLAGS        Y02752 07150000
         AIF   ('&PURGE' EQ 'NONE').PRGEOK                       Y02752 07200000
         AGO   .ERROZ             INVALED PURGE OPERAND          Y02752 07250000
.NOPRGE  ANOP                     &NUMB3 IS SET TO QUIESCE       Y02752 07300000
         AIF   (&SWSTAI).PRGEOK   CORRECT DEFAULT FOR STAI       Y02752 07350000
&NUMB3   SETA  2                  SET TO NONE, DEFAULT FOR ESTAI Y02752 07400000
.PRGEOK  ANOP                     PURGE BITS ARE SET CORRECTLY   Y02752 07450000
         AIF   ('&ASYNCH' EQ '').NOASYNC                         Y02752 07500000
         AIF   ('&ASYNCH' EQ 'NO').ASYNCOK                       Y02752 07550000
&NUMB3   SETA  (&NUMB3+4)         SET ASYNCH=YES FLAG            Y02752 07600000
         AIF   ('&ASYNCH' EQ 'YES').ASYNCOK                      Y02752 07650000
         AGO   .ERROZ             INVALID ASYNCH OPERAND         Y02752 07700000
.NOASYNC ANOP                     CHECK DEFAULTS                 Y02752 07750000
         AIF   (&SWSTAI).ASYNCOK  ASYNCH=NO IS STAI DEFAULT      Y02752 07800000
&NUMB3   SETA  (&NUMB3+4)         ASYNCH=YES IS ESTAI DEFAULT    Y02752 07850000
.ASYNCOK ANOP                     ASYNCH BIT IS SET CORRECTLY    Y02752 07900000
         AIF   (&SWSTAI).NUMB3X1  TERM AND ESTAI FLAGS NOT SET   Y02752 07950000
&NUMB3   SETA  (&NUMB3+8)         BIT4=1 FOR ESTAI               Y02752 08000000
         AIF   ('&TERM' EQ 'NO').NUMB3X1                         Y02752 08050000
&NUMB3   SETA  (&NUMB3+16)        BIT3=1 FOR TERM=YES            Y02752 08100000
.NUMB3X1 ANOP                                                           08120000
         AIF   ('&ALCOPY' EQ 'NO').COPYNO                          @L1A 08133300
         AIF   ('&ALCOPY' NE 'YES').NUMB3X2                        @L1A 08146600
&NUMB3   SETA  (&NUMB3+32)        BIT2=1 FOR ALCOPY=YES            @L1A 08160000
         AGO   .NUMB3X2                                            @L1A 08165000
.COPYNO  ANOP                                                      @L1A 08170000
&NICOPY  SETC  '0'                TURN OFF ALCOPY BIT IF ALCOPY=NO @L1A 08175000
.NUMB3X2 ANOP                     BYTE IS COMPLETE                 @L1A 08180000
&GNAME   SETC  'IHB'.'&SYSNDX'                                          08200000
&IHBSWA  SETB  ('&VL' EQ '1')                                           08250000
&IHBSWB  SETB  ('&SF' EQ '(E,(15))')                                    08300000
         AIF   ('&NAME' EQ '' OR '&SF' EQ 'L').CONTAA                   08350000
&NAME    DS    0H                                                       08400000
.CONTAA  AIF   ('&PARAM' EQ '' AND '&MF(1)' NE 'E').CONTA               08450000
         IHBOPLTX ,&PARAM,MF=&MF                                   @L1C 08500000
.CONTA   AIF   ('&SF' EQ 'I').IROUT                                     08550000
         AIF   ('&SF' EQ 'L').LROUT                                     08600000
         AIF   (N'&SF NE 2).ERROR3                                      08650000
         AIF   ('&SF(1)' NE 'E').ERROR3                                 08700000
         AIF   ('&SF'(4,1) EQ '(').ISAREG                               08750000
         LA    15,&SF(2)          LOAD LIST ADDRESS            @G860PXB 08800000
         AGO   .CONTB                                                   08850000
.E1      IHBERMAC 35,&IHBNO,&MF,,,0                              Y02752 08900000
         MEXIT                                                          08950000
.ERROR2  IHBERMAC 71,&IHBNO,&PARAM                                      09000000
         MEXIT                                                          09050000
.ERROR3  IHBERMAC 41,&IHBNO,&SF,,,0                              Y02752 09100000
         MEXIT                                                          09150000
.ERROR4  IHBERMAC 88,&IHBNO                                             09200000
         MEXIT                                                          09250000
.ERROR5  IHBERMAC 72,&IHBNO                                             09300000
         MEXIT                                                          09350000
.ERROR6  IHBERMAC 31,&IHBNO                                             09400000
         MEXIT                                                          09450000
.ERROR7  IHBERMAC 240,,LPMOD                                            09500000
         MEXIT                                                          09550000
.ERRHID IHBERMAC 195                                                    09600000
         MEXIT                                                          09650000
.ISAREG  AIF   ('&SF(2)' EQ '(15)').CONTB                               09700000
&A       SETA  K'&SF-6                                                  09750000
&H       SETC  '&SF'(5,&A)                                              09800000
         LR    15,&H              LOAD LIST ADDRESS            @G860PXB 09850000
.CONTB   ANOP                                                           09900000
.* E FORM MUST ALLOW SETTING OF ALL FIELDS, SO THAT A LIST FORM  Y02752 09950000
.* OF ALL ZEROS IS ACCEPTABLE. EXTENDED PARM LIST BITS AND       Y02752 10000000
.* LENGTH FIELD MUST BE SET.                                     Y02752 10050000
         AIF   ('&EP' EQ '').CONTC                                      10100000
&F60(1)  SETB  0                  RESET DE INDICATION          @ZA72420 10150000
         LA    14,28(,15)         PICK UP EP ADDRESS           @G860PXB 10200000
         ST    14,0(,15)          INSERT EP ADDRESS INTO LIST  @G860PXB 10250000
         MVC   28(8,15),*+10      MOVE EP SYMB INTO LIST       @G860PXB 10300000
         B     *+12               BRANCH AROUND EP SYMBOL      @G860PXB 10350000
         DC    CL8'&EP'           EP SYMBOL                    @G860PXB 10400000
         AGO   .CONTE                                                   10450000
.CONTC   AIF   ('&EPLOC' EQ '').CONTD                                   10500000
&F60(1)  SETB  0                  RESET DE INDICATION          @ZA72420 10550000
         AIF   ('&EPLOC'(1,1) EQ '(').ISAREGA                           10600000
         LA    14,&EPLOC          PICK UP EPLOC ADDRESS        @G860PXB 10650000
         ST    14,0(,15)          INSERT EPLOC INTO LIST       @G860PXB 10700000
         AGO   .CONTE                                                   10750000
.ISAREGA ST    &EPLOC(1),0(,15)   INSERT EPLOC INTO LIST       @G860PXB 10800000
         AGO   .CONTE                                                   10850000
.CONTD   AIF   ('&DE' EQ '').CONTE                                      10900000
&NUMB1   SETA  &NUMB1+128         DE BIT                       @G860PXB 10950000
         AIF   ('&DE'(1,1) EQ '(').ISAREGB                              11000000
         LA    14,&DE             PICK UP DE ADDRESS           @G860PXB 11050000
         ST    14,0(,15)          INSERT DE INTO LIST          @G860PXB 11100000
         AGO   .CONTE                                                   11150000
.ISAREGB ST    &DE(1),0(,15)      INSERT DE INTO LIST          @G860PXB 11200000
.CONTE   AIF   ('&DCB' EQ '').CONHID                                    11250000
         AIF   ('&DCB'(1,1) EQ '(').ISAREGC                             11300000
         LA    14,&DCB            PICK UP DCB ADDRESS          @G860PXB 11350000
         ST    14,4(,15)          STORE DCB INTO LIST          @G860PXB 11400000
         AGO   .CONHID                                                  11450000
.ISAREGC ST    &DCB(1),4(,15)     STORE INTO LIST              @G860PXB 11500000
.CONHID  ANOP                                                    Y02752 11550000
.CONTF   AIF   ('&ECB' EQ '').CONTG                                     11600000
         AIF   ('&ECB'(1,1) EQ '(').ISAREGD                             11650000
         LA    14,&ECB            PICK UP ECB ADDRESS          @G860PXB 11700000
         ST    14,8(,15)          ECB INTO LIST                @G860PXB 11750000
         AGO   .CONTG                                                   11800000
.ISAREGD ST    &ECB(1),8(,15)     ECB INTO LIST                @G860PXB 11850000
.CONTG   ANOP                                                    Y02752 11900000
         AIF   ('&GSPV' EQ '').CONTH                                    11950000
&F60(2)  SETB  0                  RESET GSPL INDICATION        @ZA72420 12000000
         AIF   ('&GSPV'(1,1) EQ '(').ISAREGE                            12050000
         LA    14,&GSPV.(0,0)     PICK UP GSPV VALUE           @G860PXB 12100000
         ST    14,12(,15)         GSPV INTO LIST               @G860PXB 12150000
         AGO   .CONTI                                                   12200000
.ISAREGE ST    &GSPV(1),12(,15)   GSPV INTO LIST               @G860PXB 12250000
         AGO   .CONTI                                                   12300000
.CONTH   AIF   ('&GSPL' EQ '').CONTI                                    12350000
&NUMB1   SETA  &NUMB1+64          INDICATE GSPL                @G860PXB 12400000
         AIF   ('&GSPL'(1,1) EQ '(').ISAREGF                            12450000
         LA    14,&GSPL           PICK UP GSPL ADDRESS         @G860PXB 12500000
         ST    14,12(,15)         GSPL INTO LIST               @G860PXB 12550000
         AGO   .CONTI                                                   12600000
.ISAREGF ST    &GSPL(1),12(,15)   GSPL INTO LIST               @G860PXB 12650000
.CONTI   AIF   ('&SHSPV' EQ '').CONTK                                   12700000
&F60(3)  SETB  0                  RESET SHSPL INDICATION       @ZA72420 12750000
         AIF   ('&SHSPV'(1,1) EQ '(').ISAREGG                           12800000
         LA    14,&SHSPV.(0,0)    PICK UP SHSPV VALUE          @G860PXB 12850000
         ST    14,16(,15)         SHSPV INTO LIST              @G860PXB 12900000
         AGO   .CONTL                                                   12950000
.ISAREGG ST    &SHSPV(1),16(,15)  SHSPV INTO LIST              @G860PXB 13000000
         AGO   .CONTL                                                   13050000
.CONTK   AIF   ('&SHSPL' EQ '').CONTL                                   13100000
&NUMB1   SETA  &NUMB1+32          SHSPL PRESENT                @G860PXB 13150000
         AIF   ('&SHSPL'(1,1) EQ '(').ISAREGH                           13200000
         LA    14,&SHSPL          PICK UP SHSPL ADDRESS        @G860PXB 13250000
         ST    14,16(,15)         SHSPL INTO LIST              @G860PXB 13300000
         AGO   .CONTL                                                   13350000
.ISAREGH ST    &SHSPL(1),16(,15)  SHSPL INTO LIST              @G860PXB 13400000
.CONTL   AIF   ('&ETXR' EQ '').CONTN                                    13450000
         AIF   ('&ETXR'(1,1) EQ '(').ISAREGI                            13500000
         LA    14,&ETXR           PICK UP ETXR ADDRESS         @G860PXB 13550000
         ST    14,20(,15)         INSERT ETXR INTO LIST        @G860PXB 13600000
         AGO   .CONTN                                                   13650000
.ISAREGI ST    &ETXR(1),20(,15)   INSERT ETXR INTO LIST        @G860PXB 13700000
.CONTN   ANOP                                                           13750000
.CONTN0  AIF   ('&DPMOD' EQ '').CONTO                                   13800000
         AIF   ('&DPMOD'(1,1) EQ '(').ISAREGJ                           13850000
         B     *+6                BRANCH AROUND DPMOD          @G860PXB 13900000
         AIF   ('&DPMOD'(1,1) EQ '+' OR '&DPMOD'(1,1) EQ '-').SIGNA     13950000
         DC    AL2(&DPMOD)        DPMOD VALUE                  @G860PXB 14000000
         MVC   24(2,15),*-2       INSERT DPMOD IN LIST         @G860PXB 14050000
         AGO   .CONTO                                                   14100000
.SIGNA   DC    AL2(0&DPMOD)       DPMOD VALUE                  @G860PXB 14150000
         MVC   24(2,15),*-2       INSERT DPMOD IN LIST         @G860PXB 14200000
         AGO   .CONTO                                                   14250000
.ISAREGJ STH   &DPMOD(1),24(,15)  DPMOD IN LIST                @G860PXB 14300000
.CONTO   AIF   ('&LPMOD' EQ '').CONTP                                   14350000
         AIF   ('&LPMOD'(1,1) EQ '(').ISAREGK                           14400000
         MVI   26(15),&LPMOD      INSERT LPMOD IN LIST                  14450000
         AGO   .CONTP                                                   14500000
.ISAREGK STC   &LPMOD(1),26(,15)  LPMOD IN LIST                @G860PXB 14550000
.CONTP   ANOP                                                      I270 14600000
         AIF   (&NUMB EQ 0).JSCB1                              @G860PXB 14650000
         OI    27(15),&NUMB       SET STATUS BYTE              @G860PXB 14700000
.JSCB1   AIF   ('&JSCB' EQ '').CONTQ5                                   14750000
         AIF   ('&JSCB'(1,1) EQ '(').ISAREG1                            14800000
         LA    14,&JSCB           PICK UP JSCB ADDRESS                  14850000
         ST    14,36(,15)         INSERT JSCB INTO LIST        @G860PXB 14900000
         AGO   .CONTQ5                                            20028 14950000
.ISAREG1 ST    &JSCB(1),36(,15)   INSERT JSCB INTO LIST        @G860PXB 15000000
.CONTQ5  ANOP                                                     20028 15050000
         AIF   ( NOT (&SWSTAI OR &SWESTAI) ).TTID  NEITHER GIVEN Y02752 15100000
.* IF EITHER STAI OR ESTAI GIVEN, OVERRIDE BYTES DEC 41 - 47     Y02752 15150000
.STAIRB  AIF   ('&STXADDR'(1,1) EQ '(' ).REG1                    Y02752 15200000
         LA    14,&STXADDR        GET (E)STAI EXIT ADDRESS     @G860PXB 15250000
         ST    14,44(,15)         (E)STAI EXIT ADDR INTO LIST  @G860PXB 15300000
         AGO   .STAI2                                             20028 15350000
.REG1    ST    &STXADDR,44(,15)   (E)STAI EXIT ADDR INTO LIST  @G860PXB 15400000
.STAI2   ANOP                                                    Y02752 15450000
         AIF   ('&STPADDR' NE '').STY                            Y02752 15500000
         SR    14,14                                             Y02752 15550000
         ST    14,40(,15)         NO STAI/ESTAI PARM LIST ADDR @G860PXB 15600000
         AGO   .TTID                                             Y02752 15650000
.STY     ANOP                                                    Y02752 15700000
         AIF   ('&STPADDR'(1,1) EQ '(').REG2                     Y02752 15750000
         LA    14,&STPADDR        GET STAI/ESTAI PARM LIST ADDR  Y02752 15800000
         ST    14,40(,15)         STAI/ESTAI PARM LIST ADDR    @G860PXB 15850000
         AGO   .TTID                                                    15900000
.REG2    ST    &STPADDR,40(,15)   STAI/ESTAI PARM LIST ADDR    @G860PXB 15950000
.TTID    AIF   ('&TID' EQ '0').TLIBE                                    16000000
         AIF   ('&TID'(1,1) EQ '(').REGTID                              16050000
         MVI   53(15),&TID        INSERT TID INTO LIST         @G860PXB 16100000
         AGO   .TLIBE                                                   16150000