         MACRO                                                          03000003
&NAME    BCS   &M,&A                    BRANCH ON CONDITION             06000003
         GBLA  &DISP                                                    07000000
         GBLC  &LBL1                                                    08000000
         LCLA  &MK                                                      09000003
&MK      SETA  16*&M                                                    12000003
&NAME    DC    0H'0',X'BC',AL1(&MK),AL2(&A-&LBL1+&DISP)                 15000000
         MEND                                                           18000003
