         MACRO                                                          03000003
&NAME    BLS   &R,&A                    BRANCH AND LINK                 06000003
         GBLA  &DISP                                                    07000000
         GBLC  &LBL1                                                    08000000
         LCLA  &RG                                                      09000003
         AIF   ('&R' LT '4').B1                                         12000003
         MNOTE 8,'***  IHB355  LINK REGISTER MUST BE 0-3; 0 ASSUMED'    15000000
&RG      SETA  0                                                        18000003
         AGO   .B2                                                      21000003
.B1      ANOP                                                           24000003
&RG      SETA  16*&R                                                    27000003
.B2      ANOP                                                           30000003
&NAME    DC    0H'0',X'BD',AL1(&RG),AL2(&A-&LBL1+&DISP)                 33000000
         MEND                                                           36000003
