*/*                                                                  */ 00002000
*/*PROPRIETARY V3 STATEMENT                                          */ 00004000
*/*LICENSED MATERIALS - PROPERTY OF IBM                              */ 00006000
*/*"RESTRICTED MATERIALS OF IBM"                                     */ 00008000
*/*5695-DF1                                                          */ 00010000
*/*(C) COPYRIGHT 1992  IBM CORP.                                     */ 00012000
*/*END PROPRIETARY V3 STATEMENT                                      */ 00015000
*/*                                                                  */ 00018000
         MACRO                                                          00020000
&NAME    BSP   &DCB,&DUMMY=                                             00040000
         AIF   ('&DCB' EQ '').E1                                        00060000
&NAME    IHBINNRA &DCB                                                  00080000
         SVC   69                                ISSUE BSP SVC          00100000
         MEXIT                                                          00120000
.E1      IHBERMAC 6                     DCB OPERAND MISSING             00140000
         MEND                                                           00160000
