*/*                                                                  */ 00050000
*/*PROPRIETARY V3 STATEMENT                                          */ 00100000
*/*LICENSED MATERIALS - PROPERTY OF IBM                              */ 00150000
*/*"RESTRICTED MATERIALS OF IBM"                                     */ 00200000
*/*5695-DF1                                                          */ 00250000
*/*(C) COPYRIGHT 1992  IBM CORP.                                     */ 00300000
*/*END PROPRIETARY V3 STATEMENT                                      */ 00350000
*/*                                                                  */ 00450000
         MACRO                                                          00800000
&NAME    BUILDRCD   &POOL,&NO,&LTH,&REC,&RECL,&MF=I                     01600000
         LCLB  &NOGO                                                    01650000
         LCLC  &PAREN,&CHAR                                             02400000
.*                                                                      02410000
.*         RELEASE 22 DELETIONS/CHANGES                                 02500000
.*         RELEASE 21 DELETIONS/CHANGES                                 02550000
.*    040000-144000,160000-184000,200000-216000,232000,272000-   M1754  02600000
.*    280000,296000,320000,352000-384000,400000.416000.432000,   M1754  02650000
.*    464000,480000-496000,576000,600000,624000-648000,672000-   M1754  02700000
.*    712000,728000-736000,760000-768000,784000-929000           M1754  02750000
.*         RELEASE 20 DELETIONS/CHANGES                                 02760000
.*                                                                      02800000
         AIF   ('&MF(1)' EQ 'E').EXEC                                   03200000
         AIF   ('&MF' EQ 'L').LIST                               M1754  03250000
         AIF   ('&MF' EQ 'I').T2                                 M1754  03300000
         IHBERMAC   35,&MF,&MF          INVALID MACRO FORM       M1754  03400000
         AGO   .TERM                                             M1754  03450000
.T2      AIF   ('&POOL' NE '').T3                                M1754  04000000
&NOGO    SETB  1                                                 M1754  04050000
         IHBERMAC   02,009              BUF POOL ADR NOT SPEC.   M1754  04100000
.T3      AIF   ('&NO' NE '').T4                                  M1754  04800000
&NOGO    SETB  1                                                 M1754  04850000
         IHBERMAC   03,009              BUF NO. NOT SPECIFIED    M1754  04900000
.T4      AIF   ('&LTH' NE '').T5                                 M1754  05600000
&NOGO    SETB  1                                                 M1754  05650000
         IHBERMAC   04,009              REC LENGTH NOT SPECIFIED M1754  05700000
.T5      AIF   ('&REC' NE '').STAND                              M1754  06400000
         IHBERMAC   05,009              REC AREA NOT SPECIFIED   M1754  06500000
         AGO   .TERM                                             M1754  06550000
.LIST    AIF   ('&POOL' EQ '&POOL(1)').LT3 BUF POOL A SUBLIST    M1754  07350000
&NOGO    SETB  1                        YES. INVALID OPERAND     M1754  07400000
         IHBERMAC   36,,&POOL           BUF POOL ADR INVALID     M1754  07450000
.LT3     AIF   ('&NO' EQ '&NO(1)').LT4  BUF NO A SUBLIST         M1754  07500000
&NOGO    SETB  1                        YES. INVALID OPERAND     M1754  07550000
         IHBERMAC   37,,&NO             BUF NO. INVALID          M1754  07600000
.LT4     AIF   ('&LTH' EQ '&LTH(1)').LT5 BUF LENGTH A SUB LIST   M1754  07650000
&NOGO    SETB  1                        YES. BUF LENGTH INVALID  M1754  07700000
         IHBERMAC   38,,&LTH            REC LENGTH INVALID       M1754  07750000
.LT5     AIF   ('&REC' EQ '&REC(1)').LT6 REC ADR A SUB LIST      M1754  07800000
&NOGO    SETB  1                        YES. REC ADR INVALID     M1754  07850000
         IHBERMAC   39,,&REC            REC AREA INVALID OPERAND M1754  07900000
.LT6     AIF   ('&RECL' EQ '&RECL(1)').LT7 REC LEN A SUB LIST    M1754  07950000
&NOGO    SETB  1                        YES. REC LEN INVALID     M1754  07960000
         IHBERMAC 44,,&RECL             REC LEN INVALID OPERAND  M1754  07970000
.LT7     AIF   (&NOGO EQ 1).TERM                                 M1754  07980000
&NAME    DS    0F                                                       08000000
         AGO   .A1                                                      08800000
.STAND   AIF   (&NOGO EQ 1).TERM                                 M1754  08850000
         CNOP  0,4                                                      09600000
         AIF   ('&RECL' EQ '').SHORT                             M1754  10400000
&NAME    BAL   1,*+20                   BRANCH AROUND PARAMETER LIST    11200000
         AGO   .A1                                                      12000000
.SHORT   ANOP                                                    M1754  12050000
&NAME    BAL   1,*+16                   BRANCH AROUND PARAMETER LIST    12800000
.A1      AIF   ('&POOL' EQ '').A                                 M1754  13600000
         AIF   ('&POOL' NE '&POOL(1)').A                         M1754  13650000
         DC    A(&POOL)                 ADDRESS OF BUFFER POOL          14400000
         AGO   .B                                                       15200000
.A       DC    A(0)                     ADDRESS OF BUFFER POOL          16800000
.B       AIF   ('&NO' EQ '').C                                   M1754  17600000
         AIF   ('&NO' NE '&NO(1)').C                             M1754  17650000
         DC    AL2(&NO)                 NUMBER OF BUFFERS               18400000
         AGO   .D                                                       19200000
.C       DC    AL2(0)                   NUMBER OF BUFFERS               20000000
.D       AIF   ('&LTH' EQ '').E                                  M1754  20800000
         AIF   ('&LTH' NE '&LTH(1)').E                           M1754  20850000
         DC    AL2(&LTH)                LENGTH OF BUFFERS               21600000
         AGO   .F                                                       22400000
.E       DC    AL2(0)                   LENGTH OF BUFFERS               23200000
.F       AIF   ('&RECL' EQ '').G                                        24000000
         DC    AL1(0)                   ALIGNMENT FIELD                 24800000
         AGO   .H                                                       25600000
.G       DC    AL1(128)                 END OF PARAMETER LIST FLAG      26400000
.H       AIF   ('&REC' EQ '').I                                  M1754  27200000
         AIF   ('&REC' NE '&REC(1)').I                           M1754  27250000
         DC    AL3(&REC)                ADDRESS OF RECORD AREA          28000000
         AGO   .J                                                       28800000
.I       DC    AL3(0)                   ADDRESS OF RECORD AREA          29600000
.J       AIF   ('&RECL' EQ '').STORE                                    30400000
         DC    AL1(128)                 END OF PARAMETER LIST FLAG      31200000
         AIF   ('&RECL' EQ '&RECL(1)').K                         M1754  32000000
         DC    AL3(0)                   LENGTH OF RECORD AREA           32800000
         AGO   .STORE                                                   33600000
.K       DC    AL3(&RECL)               LENGTH OF RECORD AREA           34400000
.STORE   AIF   ('&MF' EQ 'I').L                                  M1754  35200000
         MEXIT                                                          35250000
.L       AIF   ('&POOL' EQ '&POOL(1)').M                         M1754  37600000
         ST    &POOL(1),0(0,1)          MOVE BUF POOL ADDR INTO LIST    38400000
.M       AIF   ('&NO' EQ '&NO(1)').N                                    39200000
         STH   &NO(1),4(0,1)            MOVE BUF NUMBER INTO LIST       40000000
.N       AIF   ('&LTH' EQ '&LTH(1)').O                                  40800000
         STH   &LTH(1),6(0,1)           MOVE BUF POOL LENGTH INTO LIST  41600000
.O       AIF   ('&REC' EQ '&REC(1)').P                                  42400000
         ST    &REC(1),8(0,1)           MOVE REC AREA ADDR INTO LIST    43200000
         AIF   ('&RECL' NE '').P                                        44000000
         OI    8(1),X'80'               TURN ON END OF PARM LIST FLAG   44800000
.P       AIF   ('&RECL' EQ '&RECL(1)').Q                                45600000
         ST    &RECL(1),12(0,1)         MOVE REC AREA LENGTH INTO LIST  46400000
         OI    12(1),X'80'              TURN ON END OF PARM LIST FLAG   47200000
.Q       LINK  EP=IGG019B0              LINK TO BUILDRCD ROUTINE M1754  48000000
         MEXIT                                                          48800000
.EXEC    AIF   ('&NAME' EQ '').NONAME                            M1754  49600000
&NAME    DS    0H                                                       49650000
.NONAME  ANOP                                                    M1754  49700000
&CHAR    SETC  '&MF(2)'                                                 50400000
&PAREN   SETC  '&CHAR'(1,1)                                             51200000
         AIF   ('&PAREN' EQ '(').R                                      52000000
         LA    1,&MF(2)                 LOAD PARM LIST ADDR INTO REG 1  52800000
         AGO   .TEST                                                    53600000
.R       AIF   ('&MF(2)' EQ '(1)').TEST                                 54400000
         LR    1,&MF(2)                 LOAD PARM LIST ADDR INTO REG 1  55200000
.TEST    AIF   ('&POOL' EQ '').CON1                                     56000000
         AIF   ('&POOL' EQ '&POOL(1)').NUMB                             56800000
         ST    &POOL(1),0(0,1)          MOVE BUF POOL ADDR INTO LIST    57600000
         AGO   .CON1                                                    58400000
.NUMB    LA    0,&POOL                                                  59200000
         ST    0,0(0,1)                 MOVE BUF POOL ADDR INTO LIST    60000000
.CON1    AIF   ('&NO' EQ '').CON2                                       60800000
         AIF   ('&NO' EQ '&NO(1)').NUMC                                 61600000
         STH   &NO(1),4(0,1)            MOVE BUF NUMBER INTO LIST       62400000
         AGO   .CON2                                                    63200000
.USEDC   B     *+6                      BRANCH AROUND VALUE             63250000
         DC    AL2(&NO)                 NUMBER OF BUFFERS               63300000
         MVC   4(2,1),*-2               MOVE BUF NUMBER INTO LIST       63350000
         AGO   .CON2                                             M1754  63400000
.NUMC    AIF   (T'&NO NE 'N').USEDC                              M1754  63450000
         AIF   (&NO GT 4095).USEDC                               M1754  63500000
         LA    0,&NO                    LOAD BUF NUMBER                 64000000
         STH   0,4(0,1)                 MOVE BUF NUMBER INTO LIST       64800000
.CON2    AIF   ('&LTH' EQ '').CON3                                      65600000
         AIF   ('&LTH' EQ '&LTH(1)').NUMD                               66400000
         STH   &LTH(1),6(0,1)           MOVE BUF POOL LENGTH INTO LIST  67200000
         AGO   .CON3                                                    68000000
.USEDCL  B     *+6                      BRANCH AROUND VALUE             68050000
         DC    AL2(&LTH)                BUFFER POOL LENGTH              68100000
         MVC   6(2,1),*-2               MOVE BUF POOL LENGTH INTO LIST  68150000
         AGO   .CON3                                             M1754  68200000
.NUMD    AIF   (T'&LTH NE 'N').USEDCL                            M1754  68250000
         AIF   (&LTH GT 4095).USEDCL                             M1754  68300000
         LA    0,&LTH                   LOAD BUF POOL LENGTH            68800000
         STH   0,6(0,1)                 MOVE BUF POOL LENGTH INTO LIST  69600000
.CON3    AIF   ('&REC' EQ '').CON4                                      70400000
         IC    0,8(0,1)                 SAVE FLAG FIELD                 71200000
         AIF   ('&REC' EQ '&REC(1)').NUME                               72000000
         ST    &REC(1),8(0,1)           MOVE REC AREA ADDR INTO LIST    72800000
         STC   0,8(0,1)                 RESTORE FLAG FIELD              73600000
         AGO   .CON4                                                    74400000
.NUME    LA    15,&REC                  LOAD REC AREA ADDR              75200000
         ST    15,8(0,1)                MOVE REC AREA ADDR INTO LIST    76000000
         STC   0,8(0,1)                 RESTORE FLAG FIELD              76800000
.CON4    AIF   ('&RECL' EQ '').Q                                        77600000
         AIF   ('&RECL' EQ '&RECL(1)').NUMF                             79200000
         IC    0,12(0,1)                SAVE FLAG FIELD                 79250000
         ST    &RECL(1),12(0,1)         MOVE REC LENGTH INTO LIST       80000000
         STC   0,12(0,1)                RESTORE FLAG FIELD              80800000
         AGO   .Q                                                       81600000
.USEDCR  B     *+8                      BRANCH AROUND VALUE             81650000
         DC    AL4(&RECL)               RECORD LENGTH                   81700000
         MVC   13(3,1),*-3              MOVE RECORD LENGTH INTO LIST    81750000
         AGO   .Q                                                M1754  81850000
.NUMF    AIF   (T'&RECL NE 'N').USEDCR                           M1754  81900000
         AIF   (&RECL GT 4095).USEDCR                            M1754  81950000
         IC    0,12(0,1)                SAVE FLAG FIELD                 82000000
         LA    15,&RECL                 LOAD RECORD LENGTH              82400000
         ST    15,12(0,1)               MOVE REC LENGTH INTO LIST       83200000
         STC   0,12(0,1)                RESTORE FLAG FIELD              84000000
         AGO   .Q                                                       84800000
.TERM    AIF   ('&NAME' EQ '').END                               M1754  84850000
&NAME    DS    0H                                                       84900000
.END     MEND                                                           92800000
