         MACRO                                                          03000003
&NAME    BUR   &R                       BRANCH VIA LINK REG             06000003
         AIF   (T'&R EQ 'N' AND '&R' LT '4').B3                         09000000
         MNOTE 8,'***  IHB355  LINK REGISTER MUST BE 0-3; 0 ASSUMED'    12000000
&NAME    DC    0H'0',X'BE',X'0'                                         15000003
         AGO   .END                                                     18000003
.B3      ANOP                                                           21000003
&NAME    DC    0H'0',X'BE',X'&R.0'                                      24000003
.END     MEND                                                           27000003
