         MACRO                                                          00050000
&NAME    CALL  &ENTRY,&OPRNDS,&VLPARA,&ID=,&MF=I,&LINKINST=,&LINKOP=,  *00067800
               &PLIST8=,&PLIST4=                                        00085600
.********************************************************************** 00103500
.*                                                                    * 00107000
.* COPYRIGHT = 5647-A01                                               * 00110500
.*             THIS MODULE IS "RESTRICTED MATERIALS OF IBM"           * 00114000
.*             (C) COPYRIGHT IBM CORP. 1988,2000                      * 00117500
.*             LICENSED MATERIALS - PROPERTY OF IBM                   * 00121000
.*                                                                    * 00124500
.* STATUS =  HBB7703                                                  * 00125900
.*                                                                    * 00127300
.*01* EXTERNAL CLASSIFICATION: PI                                     * 00128700
.*01* END OF EXTERNAL CLASSIFICATION:                                 * 00130100
.*                                                                    * 00131500
.* CHANGE ACTIVITY =                                                  * 00135000
.*   $L1 =    AR    HBB3310 851105 PDXB: AR SUPPORT                   * 00138500
.*   OY22639 - FIX VALIDITY CHECKING FOR MF=(E,....) PARAMETER        * 00140200
.*   $L2 =  PR602   JBB6602 941231 PDXB: LINKINST= SUPPORT            * 00141100
.*   $L3 = 64BITCSV HBB7703 980311 PDXB: 8-BYTE PARAMETER LIST        * 00141500
.*                                                                    * 00142000
.********************************************************************** 00145500
         GBLC  &SYSASCE,&SYSAM64,&SYSPLIST8                        @L3A 00147700
         GBLB  &IHBSWA,&IHBSWB                                          00150000
         GBLC  &IHBNO                                                   00200000
         LCLC  &GNAME                                                   00250000
         LCLC  &SAVEPLIST8                                         @L3A 00262500
         LCLC  &LO                                                 @L2A 00275000
         LCLB  &PL8                                                @L3A 00287500
&IHBNO   SETC  '309'                                                    00300000
&GNAME   SETC  'IHB'.'&SYSNDX'                                          00350000
&IHBSWA  SETB  ('&VLPARA' EQ 'VL')                                      00400000
&IHBSWB  SETB  ('&ENTRY' EQ '(15)')                                     00450000
&SAVEPLIST8 SETC '&SYSPLIST8'                                      @L3A 00450700
         SYSSTATE TEST                                             @L3A 00451400
.********************************************************************** 00452100
.*   VALIDATE PLIST4, PLIST8                                          * 00452800
.********************************************************************** 00453500
         AIF   ('&PLIST8' EQ '').PLIST8END                         @L3A 00454200
         AIF   ('&PLIST8' EQ 'YES' OR '&PLIST8' EQ 'NO').PLIST8END @L3A 00454900
         IHBERMAC 1001,PLIST8,&PLIST8                              @L3A 00455600
         AGO   .EXIT                                               @L3A 00456300
.PLIST8END ANOP                                                    @L3A 00457000
         AIF   ('&PLIST4' EQ '').PLIST4END                         @L3A 00457700
         AIF   ('&PLIST4' EQ 'YES' OR '&PLIST4' EQ 'NO').PLIST4END @L3A 00458400
         IHBERMAC 1001,PLIST4,&PLIST4                              @L3A 00459100
         AGO   .EXIT                                               @L3A 00459800
.PLIST4END ANOP                                                    @L3A 00460500
         AIF   ('&PLIST8' EQ '' OR '&PLIST4' EQ '').PLIST84END     @L3A 00461200
         IHBERMAC 1001,PLIST4,&PLIST4                              @L3A 00461900
.PLIST84END ANOP                                                   @L3A 00462600
         AIF   ('&SYSAM64' EQ 'YES').YESPLIST8                     @L3A 00463300
         AIF   ('&PLIST8' NE 'YES').NOPLIST8                       @L3A 00464000
.YESPLIST8 ANOP                                                    @L3A 00464700
&SYSPLIST8 SETC 'YES'                                              @L3A 00465400
.NOPLIST8 ANOP                                                     @L3A 00466100
         AIF   ('&PLIST4' NE 'YES').NOPLIST4                       @L3A 00466800
&SYSPLIST8 SETC ''                                                 @L3A 00467500
.NOPLIST4 ANOP                                                     @L3A 00468200
         AIF   ('&VLPARA' NE '' AND '&VLPARA' NE 'VL').ERROR4  @ZA33014 00470003
         AIF   ('&MF' EQ 'L' AND '&ENTRY' NE '').ERROR1                 00500000
         AIF   ('&MF' EQ 'L' AND '&ID' NE '').ERROR2                    00550000
         AIF   ('&MF' NE 'L' AND '&ENTRY' EQ '').ERROR3                 00600000
         AIF   ('&MF' EQ 'L' ).CONTC                                    00650000
         AIF   (&IHBSWB).CONTCC                                         00700000
         CNOP  0,4                                                      00750000
&NAME    B     *+8                               BRANCH AROUND VCON     00800000
&GNAME.B DC    V(&ENTRY)                         ENTRY POINT ADDRESS    00850000
.CONTC   AIF   ('&OPRNDS' EQ '' AND                                    X00883300
               ('&MF' EQ 'I' OR '&MF' EQ 'L')).CONTB           @YA22639 00916600
.CONTA   IHBOPLTX &ENTRY,&OPRNDS,&NAME,MF=&MF                      @L1C 00950000
.CONTB   AIF   ('&MF' EQ 'L').EXIT                                      01000000
         AIF   (&IHBSWB).CONTD                                          01050000
         L     15,&GNAME.B                       LOAD 15 WITH ENTRY ADR 01100000
.CONTD   ANOP                                                      @L2C 01106600
         AIF   ('&LINKINST' EQ '').CONTD0                          @L2A 01113200
&LO      SETC  '14,15'                                             @L2A 01119800
         AIF   ('&LINKOP' EQ '').CONTD1                            @L2A 01126400
&LO      SETC  '&LINKOP'                                           @L2A 01133000
         AIF   ('&LINKOP'(1,1) NE '''').CONTD1                     @L2A 01139600
&LO      SETC  '&LINKOP'(2,K'&LINKOP-2)                            @L2A 01146200
.CONTD1  ANOP                                                      @L2A 01152800
         &LINKINST &LO                                                  01159400
         AGO   .CONTE                                              @L2A 01166000
.CONTD0  ANOP                                                      @L2A 01172600
         BALR  14,15                             BRANCH TO ENTRY POINT  01179200
         AGO   .CONTE                                              @L2A 01185800
.CONTE   ANOP                                                      @L2A 01192400
         AIF   ('&ID' EQ '').EXIT                                       01200000
         DC    X'4700'                           NOP INSTRUCTION WITH   01250000
         DC    AL2(&ID)                          ID IN LAST TWO BYTES   01300000
         AGO   .EXIT                                               @L3A 01350000
.CONTCC  ANOP                                                           01400000
&NAME    DS    0H                                                       01450000
         AGO   .CONTC                                                   01500000
.ERROR1  IHBERMAC 73,&IHBNO,&ENTRY          ENTRY  W/ MF=L              01550000
         AGO   .EXIT                                               @L3A 01600000
.ERROR2  IHBERMAC 74,&IHBNO,&ID             ID W/ MF=L                  01650000
         AGO   .EXIT                                               @L3A 01700000
.ERROR3  IHBERMAC 26,&IHBNO                 ENTRY SYMBOL MISSING        01750000
         AGO   .EXIT                                               @L3A 01800000
.ERROR4  IHBERMAC 1014,THIRD                INVALID THIRD PARM @ZA33014 01850003
         AGO   .EXIT                                               @L3A 01862500
.EXIT    ANOP                                                      @L3A 01875000
&SYSPLIST8 SETC '&SAVEPLIST8'                                      @L3A 01887500
         MEND                                                           01900003
