*/*                                                                  */ 00002000
*/*PROPRIETARY V3 STATEMENT                                          */ 00004000
*/*LICENSED MATERIALS - PROPERTY OF IBM                              */ 00006000
*/*"RESTRICTED MATERIALS OF IBM"                                     */ 00008000
*/*5695-DF1                                                          */ 00010000
*/*(C) COPYRIGHT 1992  IBM CORP.                                     */ 00012000
*/*END PROPRIETARY V3 STATEMENT                                      */ 00015000
*/*                                                                  */ 00018000
         MACRO                                                          00020000
&NAME    CATALOG &LIST,&DUMMY=                                          00040000
&NAME    LOCATE &LIST                   EXPAND USING LOCATE             00060000
         MEND                                                           00080000
