*%/*                                                                    00060000
         MACRO                                                          00070000
&NAME    CHAP  &VALUE,&TCB,&RELATED=                                    00100000
         LCLA  &K                                                 MO19  00150000
         LCLC  &NUM                                               MO19  00200000
.*    001400,001800,002000,002400,002600                          MO19  00250000
         AIF   ('&VALUE' EQ '').E1                                      00300000
         AIF   ('&TCB' EQ '' OR '&TCB' EQ '''S''').SR                   00350000
&NAME    IHBINNRA &TCB                                                  00400000
.CONT    AIF   ('&VALUE'(1,1) EQ '(').REG                               00450000
         AIF   ('&VALUE'(1,1) EQ '+' OR '&VALUE'(1,1) EQ '-').SIGN      00500000
         AIF   ('&VALUE'(1,1) GE '0' AND '&VALUE'(1,1) LE '9').NUM MO19 00550000
         B     *+6                                                      00600000
         DC    AL2(&VALUE)                       DELTA VALUE            00650000
         LH    0,*-2                             LOAD VALUE             00700000
         AGO   .SVC                                                MO19 00750000
.NUM     ANOP                                                      MO19 00800000
         LA    0,&VALUE.(0,0)                    LOAD VALUE      YM1995 00850000
         AGO   .SVC                                                     00900000
.SIGN    ANOP                                                     MO19  00950000
&K       SETA  K'&VALUE-1                                         MO19  01000000
&NUM     SETC  '&VALUE'(2,&K)                                     MO19  01050000
         LA    0,&NUM.(0,0)                      LOAD VALUE      YM1995 01100000
         AIF   ('&VALUE'(1,1) EQ '+').SVC                         MO19  01150000
         LNR   0,0                               LOAD NEGATIVE VALUE    01200000
         AGO   .SVC                                                     01250000
.REG     IHBINNRA ,&VALUE                                               01300000
.SVC     SVC   44                                ISSUE CHAP SVC         01350000
         MEXIT                                                          01400000
.SR      ANOP                                                           01450000
&NAME    SR    1,1                               NO SUBTASK TCBLOC      01500000
         AGO   .CONT                                                    01550000
.E1      IHBERMAC 15,312                                                01600000
         MEND                                                           01650000
**/                                                                     01700000
*CHAP:   MACRO                                                          01750000
*        KEYS(RELATED);                                                 01760000
*        ANS('?'||MACLABEL||'CHAPP '||MACLIST||MACKEYS||';');           01800000
*%END;                                                                  01850000
