* %GOTO CHKPTC1; /*                                                     00050000
         MACRO                                                          00800000
&NAME    CHKPT &DCB,                                                   *00850000
               &ID,                                                    *00900000
               &LNG,                                                   *00950000
               &DDNADDR=,                                              *01000000
               &IDADDR=,                                               *01050000
               &IDLNG=,                                                *01100000
               &MF=S                                                    01150000
.**** START OF SPECIFICATIONS ***************************************** 01200000
.*                                                                    * 01250000
.*$MAC(CHKPT): CHECKPOINT INVOCATION MACRO.                           * 01300000
.*                                                                    * 01350000
.*PROPRIETARY V3 STATEMENT                                              01352300
.*LICENSED MATERIALS - PROPERTY OF IBM                                  01354600
.*"RESTRICTED MATERIALS OF IBM"                                         01356900
.*5695-DF1                                                              01359200
.*(C) COPYRIGHT 1982  IBM CORP.                                         01361500
.*END PROPRIETARY V3 STATEMENT                                          01365000
.*                                                                    * 01368500
.********************************************************************** 01372500
.*                                                                    * 01395100
.*01* MACRO NAME = CHKPT                                              * 01400000
.*                                                                    * 01450000
.*01* DESCRIPTIVE-NAME = CHECKPOINT INVOCATION MACRO                  * 01500000
.*                                                                    * 01550000
.*01* STATUS = MVS/XA DFP RELEASE 1                                   * 01600000
.*                                                                    * 01650000
.*01* FUNCTION = THIS MACRO WILL SET UP THE CHECKPOINT PARAMETER      * 01800000
.*     LIST TO ALLOW THE CALLER TO INVOCATE CHECKPOINT TO CREATE A    * 01850000
.*     CHECKPOINT RECORD ON A CHECKPOINT DATA SET.                    * 01900000
.*                                                                    * 01950000
.*02* KEYWORDS =                                                      * 02000000
.*                                                                    * 02050000
.*     THE 'MF' KEYWORD DETERMINES WHETHER THE CHECKPOINT PARAMETER   * 02100000
.*     LIST IS EXPANDED AND/OR EXECUTABLE INSTRUCTIONS ARE GENERATED  * 02150000
.*     TO INVOKE CHECKPOINT.                                          * 02200000
.*                                                                    * 02250000
.*     THE SPECIFICATION OF MF=(E,ADDR), WILL RESULT IN THE           * 02300000
.*     MODIFICATION OF AN EXISTING CHECKPOINT PARAMETER LIST. THE     * 02350000
.*     ADDRESS OF THE PARAMETER LIST IS PROVIDED VIA A SECOND         * 02400000
.*     SUBPARAMETER OF THE 'MF' KEYWORD.  IT ALSO GENERATES CODE      * 02450000
.*     NECESSARY TO INVOKE CHECKPOINT. THIS IS CALLED THE             * 02500000
.*     EXECUTE-FORM OF THE MACRO.                                     * 02550000
.*                                                                    * 02600000
.*     WITH A SPECIFICATION OF MF=S, OR NOT SPECIFYING THE 'MF'       * 02650000
.*     KEYWORD AT ALL, THIS MACRO WILL EXPAND THE CHECKPOINT PARAMETER* 02700000
.*     LIST AND INITIALIZE IT ACCORDING TO THE OPTIONS SELECTED       * 02750000
.*     VIA THE ALLOWABLE KEYWORDS.  IT ALSO GENERATES CODE            * 02800000
.*     NECESSARY TO ISSUE SVC 63 TO INVOKE CHECKPOINT. THIS IS        * 02850000
.*     CALLED THE STANDARD-FORM (NORMAL-FORM) OF THE MACRO.           * 02900000
.*                                                                    * 02950000
.*     THE SPECIFICATION OF MF=L WILL RESULT IN THE EXPANSION OF THE  * 03000000
.*     PARAMETER LIST AND INITIALIZE IT ACCORDING TO THE SPECIFIED    * 03050000
.*     KEYWORDS. HOWEVER IT DOES NOT GENERATE THE CODE TO INVOKE      * 03100000
.*     CHECKPOINT. THIS IS CALLED THE LIST-FORM OF THE MACRO.         * 03150000
.*                                                                    * 03200000
.*     POSITIONAL OPERANDS ARE:                                       * 03250000
.*                                                                    * 03300000
.*        DCB - WILL PUT THE ADDRESS OF THE DCB INTO THE CHECKPOINT   * 03350000
.*              PARAMETER LIST. THIS OPERAND MAY SPECIFY A REGISTER   * 03400000
.*              WHICH POINTS TO THE LOCATION OF THE DCB, THE LABEL OF * 03450000
.*              THE LOCATION OF A DCB, OR "CANCEL". THIS FIELD IS     * 03500000
.*              REQUIRED FOR THE STANDARD FORM IF THE DDNADDR=        * 03550000
.*              OPERAND IS NOT USED.                                  * 03600000
.*                                                                    * 03650000
.*              VALID ENTRIES:  (RX)  ONE OF THE GENERAL REGISTERS 2  * 03700000
.*                                    THROUGH 12 EXCEPT FOR THE       * 03750000
.*                                    REGISTER USED FOR MF= (IF THE   * 03800000
.*                                    REGISTER FORM IS USED).         * 03850000
.*                                    ASSEMBLER ONLY.                 * 03900000
.*                              DCBADDR                               * 03950000
.*                              (DCBADDR)  PLS ONLY. REGISTER FORM.   * 04000000
.*                              CANCEL                                * 04050000
.*                                                                    * 04100000
.*        ID - WILL PUT THE ADDRESS OF THE FIELD CONTAINING (OR TO    * 04150000
.*             RECEIVE) THE CHECKPOINT ID INTO THE CHECKPOINT         * 04200000
.*             PARAMETER LIST. THIS OPERAND MAY SPECIFY A REGISTER    * 04250000
.*             WHICH POINTS TO THE CHECKPOINT ID FIELD OR THE LABEL OF* 04300000
.*             THE CHECKPOINT ID FIELD. THIS OPERAND IS OPTIONAL.     * 04350000
.*                                                                    * 04400000
.*             VALID ENTRIES: (RX)   ONE OF THE GENERAL REGISTERS 2   * 04450000
.*                                   THROUGH 12 EXCEPT FOR THE        * 04500000
.*                                   REGISTER USED FOR MF=, DCB, OR   * 04550000
.*                                   DDNADDR= (IF THE REGISTER FORM OF* 04600000
.*                                   ANY OF THESE OPERANDS IS USED).  * 04650000
.*                                   ASSEMBLER ONLY.                  * 04700000
.*                            CKIDADDR                                * 04750000
.*                            (CKIDADDR) PLS ONLY. REGISTER FORM.     * 04800000
.*                                                                    * 04850000
.*        LNG - WILL PUT THE LENGTH OF THE CHECKPOINT ID FIELD INTO   * 04900000
.*              THE CHECKPOINT PARAMETER LIST. THIS OPERAND MAY       * 04950000
.*              SPECIFY A REGISTER WHICH CONTAINS THE LENGTH OR A BASE* 05000000
.*              DISPLACEMENT TYPE VALUE. THIS OPERAND IS OPTIONAL.    * 05050000
.*                                                                    * 05100000
.*              FOR ASSEMBLY: IF LNG AND IDLNG ARE OMMITTED AND ID OR * 05150000
.*              IDADDR ARE SPECIFIED, THIS VALUE WILL DEFAULT TO 8.   * 05200000
.*                                                                    * 05250000
.*             VALID ENTRIES: (RX)    ONE OF THE GENERAL REGISTERS 2  * 05300000
.*                                    THROUGH 12 EXCEPT FOR THE       * 05350000
.*                                    REGISTER USED FOR MF=, DCB, ID, * 05400000
.*                                    DDNADDR=, OR IDADDR= (IF THE    * 05450000
.*                                    THE REGISTER FORM OF ANY        * 05500000
.*                                    OF THESE OPERANDS IS USED).     * 05550000
.*                                    ASSEMBLER ONLY.                 * 05600000
.*                             L'CKIDADDR                             * 05650000
.*                             CKIDLNTH                               * 05700000
.*                                                                    * 05750000
.*     KEYWORDS APPLICABLE TO THE CHECKPOINT MACRO ARE:               * 05800000
.*                                                                    * 05850000
.*       DDNADDR - WILL SET THE ADDRESS OF THE FIELD OF THE DD NAME   * 05900000
.*                 INTO THE CHECKPOINT PARAMETER LIST. THIS KEYWORD   * 05950000
.*                 IS REQUIRED FOR THE STANDARD FORM IF THE POSITIONAL* 06000000
.*                 OPERAND DCB IS OMMITTED.                           * 06050000
.*                                                                    * 06100000
.*                 FOR PLS, THE REGISTER FORM GENERATES ASSIGNMENT    * 06150000
.*                 OR INIT VALUES TO THE OPERAND VALUE. OTHERWIZE,    * 06200000
.*                 THE ADDRESS OF THE OPERAND VALUE IS GENERATED.     * 06250000
.*                                                                    * 06300000
.*                 VALID ENTRIES:  DDNADDR=(RX) ONE OF THE GENERAL    * 06350000
.*                                              REGISTERS 2 THROUGH   * 06400000
.*                                              12 EXCEPT FOR THE     * 06450000
.*                                              REGISTER USED FOR     * 06500000
.*                                              MF= (IF THE REGISTER  * 06550000
.*                                              FORM IS USED).        * 06600000
.*                                              ASSEMBLER ONLY.       * 06650000
.*                                 DDNADDR=DDNADDR ASSEMBLER.         * 06700000
.*                                 DDNADDR(DDNADDR) PLS               * 06750000
.*                                 DDNADDR((DDNADDR)) PLS. REG. FORM. * 06800000
.*                                                                    * 06850000
.*       IDADDR  - WILL SET THE ADDRESS OF THE FIELD CONTAINING (OR   * 06900000
.*                 TO RECEIVE) THE CHECKPOINT ID INTO THE CHECKPOINT  * 06950000
.*                 PARAMETER LIST. THIS OPERAND MAY SPECIFY A REGISTER* 07000000
.*                 WHICH POINTS TO THE CHECKPOINT ID FIELD OR THE     * 07050000
.*                 LABEL OF THE CHECKPOINT ID FIELD. THIS OPERAND IS  * 07100000
.*                 OPTIONAL.                                          * 07150000
.*                                                                    * 07200000
.*                 FOR PLS, THE REGISTER FORM GENERATES ASSIGNMENT    * 07250000
.*                 OR INIT VALUES TO THE OPERAND VALUE. OTHERWIZE,    * 07300000
.*                 THE ADDRESS OF THE OPERAND VALUE IS GENERATED.     * 07350000
.*                                                                    * 07400000
.*                 VALID ENTRIES: IDADDR=(RX) ONE OF THE GENERAL REGS * 07450000
.*                                           2 THROUGH 12 EXCEPT      * 07500000
.*                                           FOR THE REGISER USED     * 07550000
.*                                           FOR MF=, DCB, OR DDNADDR=* 07600000
.*                                           (IF THE REGISTER FORM OF * 07650000
.*                                           ANY OF THESE OPERANDS IS * 07700000
.*                                           USED).                   * 07750000
.*                                           ASSEMBLER ONLY.          * 07800000
.*                                IDADDR=CKIDADDR ASSEMBLER.          * 07850000
.*                                IDADDR(CKIDADDR) PLS.               * 07900000
.*                                IDADDR((CKIDADR)) PLS. REG. FORM.   * 07950000
.*                                                                    * 08000000
.*       IDLNG - WILL SET THE LENGTH OF THE CHECKPOINT ID FIELD INTO  * 08050000
.*              THE CHECKPOINT PARAMETER LIST. THIS OPERAND MAY       * 08100000
.*              SPECIFY A REGISTER WHICH CONTAINS THE LENGTH OR A BASE* 08150000
.*              DISPLACEMENT TYPE VALUE. THIS OPERAND IS OPTIONAL.    * 08200000
.*                                                                    * 08250000
.*              FOR ASSEMBLY: IF LNG AND IDLNG ARE OMMITTED AND ID OR * 08300000
.*              IDADDR ARE SPECIFIED, THIS VALUE WILL DEFAULT TO 8.   * 08350000
.*                                                                    * 08400000
.*              VALID ENTRIES: IDLNG=(RX) ONE OF THE GENERAL REGISTERS* 08450000
.*                                        2 THROUGH 12 EXCEPT FOR THE * 08500000
.*                                        REGISTER USED FOR MF=, DCB, * 08550000
.*                                        ID, DDNADDR=, OR IDADDR=    * 08600000
.*                                        (IF THE REGISTER FORM OF ANY* 08650000
.*                                        OF THESE OPERANDS IS USED). * 08700000
.*                                        ASSEMBLER ONLY.             * 08750000
.*                             IDLNG=L'CKIDADDR                       * 08800000
.*                             IDLNG=CKIDLNTH                         * 08850000
.*                                                                    * 08900000
.*                                                                    * 08950000
.*       MF      - SEE THE OPENING PARAGRAPHS ABOVE.  IF THE MF       * 09000000
.*                 KEYWORD IS NOT SPECIFIED, THE DEFAULT, MF=S, WILL  * 09050000
.*                 BE IN EFFECT.                                      * 09100000
.*                                                                    * 09150000
.*               - FOR PLS:                                           * 09200000
.*                 MF(L,NAME) GENERATES A STATIC LOCAL LIST.          * 09250000
.*                 MF(L,NAME1,NAME2) GENERATES A STATIC LOCAL         * 09300000
.*                 STRUCTURE DECLARED AS NAME2, AND AN AUTODATA       * 09350000
.*                 STRUCTURE DECLARED AS NAME1.                       * 09400000
.*                 MF(S,ADDR1,ADDR2) FIRST GENERATES A STATIC LOCAL   * 09450000
.*                 STRUCTURE DECLARED AS ADDR2, AND AN AUTODATA       * 09500000
.*                 STRUCTURE DECLARED AS ADDR1, THEN MOVES THE        * 09550000
.*                 LIST FROM ADDR2 TO ADDR1. THE VALUES SPECIFIED ARE * 09600000
.*                 THEN STORED IN THE LIST ADDR1.                     * 09650000
.*                                                                    * 09700000
.*               - FOR PLS AND ASSEMBLER:                             * 09750000
.*                 MF=(E,ADDR1,ADDR2) FIRST MOVES THE MODEL LIST FROM * 09800000
.*                 ADDR2 TO ADDR1, THEN UPDATES THE LIST AS NEEDED IN * 09850000
.*                 ADDR1. ADDR1 AND ADDR2 MUST BE ADDRESSABLE TO USE  * 09900000
.*                 THIS FORM.                                         * 09950000
.*                                                                    * 10000000
.*               - THE ADDR2 OR NAME2 OPTION IS USEFUL WHERE AUTODATA * 10050000
.*                 MUST BE USED FOR A LIST.                           * 10100000
.*                                                                    * 10150000
.*               - FOR THE STANDARD-FORM (MF=S), THE                  * 10200000
.*                 FOLLOWING VALIDITY CHECK WILL BE MADE:             * 10250000
.*                      EITHER THE POSITIONAL OPERAND DCB OR THE      * 10300000
.*                      KEYWORD DDNADDR= IS REQUIRED.                 * 10350000
.*                                                                    * 10400000
.*               - FOR ALL FORMS OF THE MACRO, THE FOLLOWING          * 10450000
.*                 VALIDITY CHECKS WILL BE MADE:                      * 10500000
.*                   1. VALID KEYWORD OPERANDS.                       * 10550000
.*                   2. DCB AND DDNADDR ARE MUTUALLY EXCLUSIVE.       * 10600000
.*                   3. ID AND IDADDR ARE MUTUALLY EXCLUSIVE.         * 10650000
.*                   4. LNG AND IDLNG ARE MUTUALLY EXCLUSIVE.         * 10700000
.*                   5. FOR LNG OR IDLNG, EITHER ID OR IDADDR IS      * 10750000
.*                      REQUIRED.                                     * 10800000
.*                                                                    * 10850000
.*                 VALID ENTRIES:  MF=S             DEFAULT           * 10900000
.*                                 MF=(S,ADDR)                        * 10950000
.*                                 MF(S,ADDR1,ADDR2) PLS ONLY         * 11000000
.*                                 MF=L               ASM ONLY        * 11050000
.*                                 MF=(L,NAME)                        * 11100000
.*                                 MF(L,NAME1,NAME2) PLS ONLY         * 11150000
.*                                 MF=(E,(RX))      ASSEMBLER ONLY.   * 11200000
.*                                         WHERE RX IS ONE OF THE     * 11250000
.*                                         GENERAL REGISTERS 2 THROUGH* 11300000
.*                                         12.                        * 11350000
.*                                 MF=(E,(1))       ASSEMBLER ONLY.   * 11400000
.*                                 MF=(E,ADDR)                        * 11450000
.*                                 MF=(E,ADDR1,ADDR2)                 * 11500000
.*                                 MF=(E,(RX),(RX)) REGISTER FORM     * 11550000
.*                                                                    * 11600000
.*01* NOTES = N/A                                                     * 11650000
.*                                                                    * 11700000
.*01* MODULE-TYPE = MACRO                                             * 11750000
.*                                                                    * 11800000
.*02* PROCESSOR = BILINQUAL. ASSEMBLER LANGUAGE OR PLS3.              * 11850000
.*                                                                    * 11900000
.*02* ATTRIBUTES = EXECUTABLE MACRO                                   * 11950000
.*                                                                    * 12000000
.*01* ENTRY-POINT = MACRO STATEMENT.                                  * 12050000
.*                                                                    * 12100000
.*02* INPUT = SEE DESCRIPTION OF OPERANDS AND KEYWORDS UNDER          * 12150000
.*           "FUNCTION".                                              * 12200000
.*                                                                    * 12250000
.*02* OUTPUT = CHECKPOINT PARAMETER LIST WITH THE FLAGS AND THE       * 12300000
.*           ADDRESSES SET DEPENDING UPON THE OPERANDS AND  KEYWORDS  * 12350000
.*           SPECIFIED AS DEFINED UNDER "OPERANDS" AND "KEYWORDS"     * 12400000
.*           ABOVE.                                                   * 12450000
.*                                                                    * 12500000
.*          FORMAT:                                                   * 12550000
.*                                                                    * 12600000
.*          BYTES  BIT  EXPLANATION                                   * 12650000
.*             0    0   THE ADDRESS OF THE CHECKPOINT ID FIELD WAS    * 12700000
.*                      NOT SUPPLIED.                                 * 12750000
.*                  1   RESERVED.                                     * 12800000
.*                  2   RESERVED.                                     * 12850000
.*                  3   RESERVED.                                     * 12900000
.*                  4   RESERVED.                                     * 12950000
.*                  5   =1 - RETURN SYSTEM GENERATED CHECKPOINT ID.   * 13000000
.*                      =0 - USE CHECKPOINT ID PROVIDED BY CALLER.    * 13050000
.*                  6   =1 - DDNADDR WAS SPECIFIED.                   * 13100000
.*                      =0 - DCB ADDRESS WAS SPECIFIED.               * 13150000
.*                  7   =1. THIS PARAMETER LIST IS IN THE MVS/XA      * 13200000
.*                          FORM.                                     * 13250000
.*             1        LENGTH OF USER SUPPLIED FIELD FOR CHECKPOINT  * 13300000
.*                      ID.                                           * 13350000
.*             2        LENGTH OF THIS CHECKPOINT PARAMETER LIST.     * 13400000
.*             3        RESERVED.                                     * 13450000
.*           4-7        ADDRESS OF DD NAME OR DCB.                    * 13500000
.*           8-11       ADDRESS OF THE CHECKPOINT ID FIELD OR 0.      * 13550000
.*                                                                    * 13600000
.*01* EXIT-NORMAL = MEND STATEMENT OR PLS END STATEMENT.              * 13650000
.*                                                                    * 13700000
.*01* EXIT-ERROR = (FOR ASSEMBLER)                                    * 13750000
.*               MNOTE AND MEND STATEMENT.  MNOTES WILL BE GENERATED  * 13800000
.*               FOR ANY OF THE FOLLOWING ERRORS ENCOUNTERED:         * 13850000
.*                                                                    * 13900000
.*                 FOR THE MF=S FORM OF THE MACRO:                    * 13950000
.*                   1. DCB OR DDNADDR= NOT SUPPLIED.                 * 14000000
.*                                                                    * 14050000
.*                 FOR ALL FORMS OF THE MACRO:                        * 14100000
.*                   1. INVALID KEYWORD OPERAND.                      * 14150000
.*                   2. DCB AND DDNADDR ARE MUTUALLY EXCLUSIVE.       * 14200000
.*                   3. ID AND IDADDR ARE MUTUALLY EXCLUSIVE.         * 14250000
.*                   4. LNG AND IDLNG ARE MUTUALLY EXCLUSIVE.         * 14300000
.*                   5. FOR LNG OR IDLNG, EITHER ID OR IDADDR IS      * 14350000
.*                      REQUIRED.                                     * 14400000
.*                                                                    * 14450000
.*01* EXTERNAL-REFERENCES = NONE                                      * 14500000
.*                                                                    * 14550000
.*01* TABLES = NONE                                                   * 14600000
.*                                                                    * 14650000
.*01* MACROS = NONE                                                   * 14700000
.*                                                                    * 14750000
.*01* CHANGE ACTIVITY = AS FOLLOWS:                                   * 14800000
.*                                                                    * 14850000
.*$L0=CKPT21,HDP1102,,STLJAK: SUPPORT FOR MVS/XA                      * 14900000
.*$L1=OY18896,HDP3310,,STLLTH: INCORRECT LEVEL OF PARMLIST        @L1A* 14925000
.*$P1=KC11252,HDP3330,,SJLERM: INCORRECT CLASS IN COPYRIGHT MACRO @P1A* 14937500
.*                                                                    * 14950000
.**** END OF SPECIFICATIONS ******************************************* 15000000
         GBLC  &SYSSPLV           1 = 370, 2 = SP2.1 (31 BIT ADDR)      15050000
         LCLA  &A                 COUNT OF OPERANDS USED                15100000
         LCLA  &IHJRC             MACRO RETURN CODE                     15150000
         LCLA  &IHJFLGN           FLAGS TO BE TURNED OFF                15200000
         LCLA  &IHJFLGO           FLAGS TO BE TURNED ON                 15250000
         LCLA  &IHJFLGS           FLAG CALCULATION VARIABLE             15300000
         LCLA  &MFCNT             NUMBER OF MF SUBOPERANDS              15350000
         LCLA  &MFLEN             LENGTH OF MF SUBOPERAND 2 OR 3        15400000
         LCLB  &DCBUSED           DCB OPERAND SPECIFIED                 15450000
         LCLB  &DDNUSED           DDNADDR KEYWORD SPECIFIED             15500000
         LCLB  &IDRGEN            RETURN SYSTEM GENERATED ID            15550000
         LCLB  &IDLUSED           LNG OPERAND OR KEYWORD IDLNG USED     15600000
         LCLB  &IDUSED            ID OPERAND OR KEYWORD IDADDR USED     15650000
         LCLB  &IDREG             REG FORM OF ID                        15700000
         LCLB  &DDNREG            REG FORM OF DDN OR DCB                15750000
         LCLB  &IDLNREG           REG FORM OF CHKID LEN                 15800000
         LCLC  &CKIDADR           VALUE FROM ID OR IDADDR               15850000
         LCLC  &DDNDCBA           VALUE FROM DCB OR DDNADDR             15900000
         LCLC  &IDLEN             VALUE FROM LNG OR IDLNG               15950000
         LCLC  &MFNAM1            NAME OF PARAMETER LIST                16000000
         LCLC  &MFNAMRG           REG FORM OF NAME1                     16025000
         LCLC  &MFNAM2            NAME OF MODEL PARAMETER LIST          16050000
         AIF   (N'&SYSLIST LE 3).POSITOK                                16060000
         MNOTE 4,'IHJA01W TOO MANY POSITIONAL OPERANDS. ONLY THREE WILL*16070000
                BE USED. '                                              16080000
.POSITOK ANOP                                                           16090000
         SPLEVEL TEST                                                   16100000
         AIF   ('&SYSSPLV' GE '2').MVSSP21                              16150000
         AIF   (N'&DDNADDR EQ 0).PM38OK1                                16200000
         MNOTE 4,'IHJA26W KEYWORD DDNADDR IS IGNORED FOR SPLEVEL=1.'    16250000
         AIF   (&IHJRC GE 4).PM38OK1                                    16300000
&IHJRC   SETA  4                                                        16350000
.PM38OK1 ANOP                                                           16400000
         AIF   (N'&IDADDR EQ 0).PM38OK2                                 16450000
         MNOTE 4,'IHJA27W KEYWORD IDADDR IS IGNORED FOR SPLEVEL=1.'     16500000
         AIF   (&IHJRC GE 4).PM38OK2                                    16550000
&IHJRC   SETA  4                                                        16600000
.PM38OK2 ANOP                                                           16650000
         AIF   (N'&IDLNG EQ 0).PM38OK3                                  16700000
         MNOTE 4,'IHJA28W KEYWORD IDLNG IS IGNORED FOR SPLEVEL=1.'      16750000
         AIF   (&IHJRC GE 4).PM38OK3                                    16800000
&IHJRC   SETA  4                                                        16850000
.PM38OK3 ANOP                                                           16900000
&NAME    CHKPT7 &DCB,&ID,&LNG,MF=&MF                                    16950000
         MEXIT                                                          28000000
.MVSSP21 ANOP                                                           28050000
&MFCNT   SETA  N'&MF              GET NUMBER OF MF SUBOPERANDS          28100000
         AIF   (N'&DCB LE 1).PRMOK05 LIMIT TO ONE SUBOPERAND            28150000
         MNOTE 8,'IHJA02E TOO MANY SUBOPERANDS FOR POSITIONAL OPERAND D*28200000
               CB.'                                                     28250000
         AIF   (&IHJRC GE 8).PRMOK05 SET RC TO 8 IF NOT GREATER         28300000
&IHJRC   SETA  8                                                        28350000
.PRMOK05 ANOP                                                           28400000
         AIF   (N'&ID LE 1).PRMOK10 LIMIT TO ONE SUBOPERAND             28450000
         MNOTE 8,'IHJA03E TOO MANY SUBOPERANDS FOR POSITIONAL OPERAND I*28500000
               D.'                                                      28550000
         AIF   (&IHJRC GE 8).PRMOK10 SET RC TO 8 IF NOT GREATER         28600000
&IHJRC   SETA  8                                                        28650000
.PRMOK10 ANOP                                                           28700000
         AIF   (N'&LNG LE 1).PRMOK15 LIMIT TO ONE SUBOPERAND            28750000
         MNOTE 8,'IHJA04E TOO MANY SUBOPERANDS FOR POSITIONAL OPERAND L*28800000
               NG.'                                                     28850000
         AIF   (&IHJRC GE 8).PRMOK15 SET RC TO 8 IF NOT GREATER         28900000
&IHJRC   SETA  8                                                        28950000
.PRMOK15 ANOP                                                           29000000
         AIF   (N'&DDNADDR LE 1).PRMOK20 LIMIT TO ONE SUBOPERAND        29050000
         MNOTE 8,'IHJA05E TOO MANY SUBOPERANDS FOR KEYWORD DDNADDR.'    29100000
         AIF   (&IHJRC GE 8).PRMOK20 SET RC TO 8 IF NOT GREATER         29150000
&IHJRC   SETA  8                                                        29200000
.PRMOK20 ANOP                                                           29250000
         AIF   (N'&IDADDR LE 1).PRMOK25 LIMIT TO ONE SUBOPERAND         29300000
         MNOTE 8,'IHJA06E TOO MANY SUBOPERANDS FOR KEYWORD IDADDR.'     29350000
         AIF   (&IHJRC GE 8).PRMOK25 SET RC TO 8 IF NOT GREATER         29400000
&IHJRC   SETA  8                                                        29450000
.PRMOK25 ANOP                                                           29500000