         MACRO                                                          03000003
&NAME    CI    &DL,&I                   COMPARE WR TO IMMEDIATE DATA    06000003
         GBLC  &DEF3890(250)                                   @ZA00766 07000003
         GBLA  &VAL3890(250)                                   @ZA00766 08000003
         LCLA  &LD,&V,&RL,&M                                   @ZA00766 09000003
         LCLC  &OP,&LABEL                                      @ZA00766 12000003
&OP      SETC  '48'                                                     15000003
&V       SETA  &I                                                       15600003
&M       SETA  1                                               @ZA00766 15900003
         AIF   (&V LE 65535).CI0                                        16200003
         MNOTE 8,'***  IHB421 IMMEDIATE VALUE EXCEEDS ALLOWED MAXIMUM'  16800003
.CI0     ANOP                                                           17400003
         AIF   (N'&DL EQ 1).CI3                                         18000003
         AIF   ('&DL(1)' LT '16').CI1                                   21000003
         MNOTE 12,'***  IHB349  DISPLACEMENT NOT 0-15 DIGITS'           24000003
.CI1     AIF   ('&DL(2)' LT '5' AND '&DL(2)' NE '0').CI2                27000003
         MNOTE 12,'***  IHB351  LENGTH NOT 1-4 DIGITS'                  30000003
.CI2     ANOP                                                           33000003
&LD      SETA  16*&DL(1)+&DL(2)-1                                       36000003
&NAME    DC    0H'0',X'&OP',AL1(&LD),AL2(&I)                            39000003
         AGO   .END                                                     42000003
.CI3     ANOP                                                           42200003
.CI7     AIF   (&M GT 250).CI8                                 @ZA00766 42400003
&LABEL   SETC  '&DEF3890(&M)'                                  @ZA00766 42600003
.CI5     AIF   ('&DL'   EQ '&LABEL').CI6                       @ZA00766 42800003
&M       SETA  &M+1                                            @ZA00766 43000003
         AGO   .CI7                                            @ZA00766 43200003
.CI8     ANOP                                                  @ZA00766 43400003
         MNOTE 12,'***   IHB425 &DL NOT EQUATED IN DWF MACRO'  @ZA00766 43600003
.CI6     ANOP                                                  @ZA00766 43800003
&RL      SETA  &VAL3890(&M)                                    @ZA00766 44000003
         AIF   ( &RL  LE  03  OR  &RL  GE  16  AND  &RL  LE  19  OR  &RX45000003
               L  GE  32  AND  &RL  LE  35  OR  &RL  GE  48  AND  &RL  X48000003
               LE  51  OR  &RL  GE  64  AND  &RL  LE  67 ).CI4 @ZA00766 51000003
         AIF   ( &RL  GE  80  AND  &RL  LE  83  OR  &RL  GE  96  AND  &X54000003
               RL  LE  99  OR  &RL  GE  112 AND  &RL  LE 115 OR  &RL   X57000003
               GE 128  AND  &RL  LE 131 ).CI4                  @ZA00766 60000003
         AIF   ( &RL  GE 144  AND  &RL  LE  147 OR  &RL  GE  160 AND  &X63000003
               RL  LE  163 OR  &RL  GE  176 AND  &RL  LE  179 OR  &RL  X66000003
               GE  192 AND  &RL  LE  195).CI4                  @ZA00766 69000003
         AIF   ( &RL  GE  208 AND  &RL  LE  211 OR  &RL  GE  224 AND  &X72000003
               RL  LE  227 OR  &RL  GE  240 AND  &RL  LE  243).CI4      75000003
.*                                                             @ZA00766 75050003
         MNOTE 12,'***  IHB351  LENGTH NOT 1-4 DIGITS'                  78000003
.CI4     ANOP                                                           81000003
&NAME    DC    0H'0',X'&OP',AL1(&RL),AL2(&I)                   @ZA00766 84000003
.END     MEND                                                           87000003
