*%/*                                                                    00060000
*********************************************************************** 00070000
*                                                              @G860PXB 00082100
* MACRO NAME = CIRB                                            @G860PXB 00094200
*                                                              @G860PXB 00106300
* DESCRIPTIVE NAME = CREATE IRB                                @G860PXB 00118400
*                                                              @G860PXB 00130500
* COPYRIGHT = 5740-XC6 COPYRIGHT IBM CORP. 1981,               @G860PXB 00142600
*             LICENSED MATERIAL PROGRAM, PROPERTY OF IBM,      @G860PXB 00154700
*             REFER TO COPYRIGHT INSTRUCTIONS FORM NUMBER      @G860PXB 00166800
*             G120-2083.                                       @G860PXB 00178900
* STATUS    = OS/VS2 HBB2102                                   @G860PXB 00191000
*                                                              @G860PXB 00203100
*********************************************************************** 00215200
         MACRO                                                          00227300
&NAME    CIRB  &EP=,&KEY=PP,&MODE=PP,&STAB=,&SVAREA=NO,&WKAREA=0,&RETIQ*00239400
               E=YES,&TYPE=IRB,&ENABLE=YES,&BRANCH=NO,                 *00251500
               &RETRN=NO,&AMODE=CALLER                         @G860PXB 00263600
         LCLB  &B(10)                                          @G860PXB 00275700
         LCLC  &D,&D2                                          @G860PXB 00287800
         AIF   ('&TYPE' EQ 'IRB').IRBTP IS IT AN IRB?                   00300000
         AGO   .E7                                                      00320000
.IRBTP   ANOP                                                           00330000
&B(8)    SETB  1                                                        00340000
         AIF   ('&ENABLE' NE 'YES').E9                                  00348800
         AIF   ('&EP' EQ '').E1                                         00350000
&NAME    IHBINNRA ,&EP                                                  00400000
&B(1)    SETB  ('&KEY' EQ 'PP')                                         00450000
         AIF   (NOT &B(1) AND '&KEY' NE 'SUPR').E2                      00500000
&B(2)    SETB  ('&MODE' EQ 'PP')                                        00550000
         AIF   (NOT &B(2) AND '&MODE' NE 'SUPR').E3                     00600000
&B(3)    SETB  ('&SVAREA' EQ 'YES')                                     00650000
         AIF   (NOT &B(3) AND '&SVAREA' NE 'NO').E4                     00700000
&B(6)    SETB  ('&RETIQE' EQ 'NO')                                 A2C  00750000
         AIF   (NOT &B(6) AND '&RETIQE' NE 'YES').E6                    00800000
&B(9)    SETB  ('&RETRN' EQ 'YES')                               YM4054 00810000
         AIF   (NOT &B(9) AND '&RETRN' NE 'NO').E11              YM4054 00820000
&B(10)   SETB  ('&AMODE' EQ 'DEFINED')                         @G860PXB 00825900
         AIF   (NOT &B(10) AND '&AMODE' NE 'CALLER').E12       @G860PXB 00831800
.*             VERIFY THAT "DEFINED" GIVEN WITH EP = REGISTER  @G860PXB 00837700
         AIF   (&B(10) AND '&EP'(1,1) NE '(').E13              @G860PXB 00843600
         AIF   ('&STAB' EQ '').CONTX                                    00850000
.CONTA   AIF   (K'&STAB GT 3).CONTB                                     00900000
&B(4)    SETB  ('&STAB' EQ 'RE')                                        00950000
&B(5)    SETB  ('&STAB' EQ 'DYN')                                       01000000
         AGO   .THRU                                                    01050000
.CONTB   AIF   (K'&STAB GT 7).CONTC                                     01100000
&B(4)    SETB  ('&STAB' EQ '(RE)' OR '&STAB' EQ '(,RE)' OR '&STAB' EQ 'X01150000
               (RE,)')                                                  01200000
&B(5)    SETB  ('&STAB' EQ '(DYN)' OR '&STAB' EQ '(,DYN)' OR '&STAB' EQX01250000
                '(DYN,)')                                               01300000
         AGO   .THRU                                                    01350000
.CONTC   AIF   (K'&STAB NE 8).THRU                                      01400000
&B(4)    SETB  ('&STAB' EQ '(RE,DYN)' OR '&STAB' EQ '(DYN,RE)')         01450000
&B(5)    SETB  (&B(4))                                                  01500000
.THRU    AIF   (&B(4)+&B(5) EQ 0).E5                                    01550000
.CONTX   AIF   ('&WKAREA'(1,1) EQ '(').REG                              01600000
         CNOP  0,4                                                      01650000
         B     *+8                               BRANCH AROUND CONST.   01700000
         DC    BL1'&B(7)&B(8)000&B(1)&B(2)&B(3)' REG 1, BYTE 0 @G860PXB 01750000
         DC    BL1'&B(10)000&B(6)&B(9)&B(5)0'    REG 1, BYTE 1 @G860PXB 01755000
         DC    AL1(0)                            RESERVED               01760000
         DC    AL1(&WKAREA)                      WORK AREA SIZE         01800000
         L     1,*-4                             LOAD REG 1 WITH CONST. 01850000
         AGO   .END                                                     01900000
.REG     B     *+6                               BRANCH AROUND FLAGS    01950000
         DC    BL1'&B(7)&B(8)000&B(1)&B(2)&B(3)'               @G860PXB 02000000
         DC    BL1'&B(10)000&B(6)&B(9)&B(5)0'                  @G860PXB 02007700
         AIF   ('&WKAREA(1)' EQ '1').REG1      SKIP LOAD IF REG 1 IS   *02015400
                                               SPECIFIED       @G860PXB 02023100
         LR    1,&WKAREA(1)    GET WORK AREA SIZE                       02030800
         ICM   1,12,*-4  INSERT MASK                           @G860PXB 02038500
         AGO   .END                                            @G860PXB 02046200
.REG1    ANOP                                    NO LOAD OF R1 @G860PXB 02053900
         ICM   1,12,*-2  INSERT MASK                           @G860PXB 02061600
.END     ANOP                                                           02070000
         AIF   ('&BRANCH' EQ 'NO').SVC                                  02120000
         AIF   ('&BRANCH' EQ 'YES').BRANCH                              02170000
         AGO   .E10                                                     02180000
.SVC     SVC   43                                ISSUE CIRB SVC         02200000
         MEXIT                                                          02250000
.BRANCH  ANOP                                                           02260000
         L     15,CVTPTR(0,0) GET CVT ADDRESS                    YM1995 02270000
         L     15,CVTS1EE-CVTMAP(15,0) GET ADDR OF IGC043BR      YM1995 02280000
         BALR  14,15     CALL CIRB                                      02290000
         MEXIT                                                          02292000
.E1      IHBERMAC 27,408                                                02300000
         MEXIT                                                          02350000
.E2      ANOP                                                           02400000
&D       SETC  'KEY=&KEY'                                               02450000
         AGO   .OUT                                                     02500000
.E3      ANOP                                                           02550000
&D       SETC  'MODE=&MODE'                                             02600000
         AGO   .OUT                                                     02650000
.E4      ANOP                                                           02700000
&D       SETC  'SVAREA=&SVAREA'                                         02750000
         AGO   .OUT                                                     02800000
.E5      ANOP                                                           02850000
&D       SETC  'STAB=&STAB'                                             02900000
         AGO   .OUT                                                     02950000
.E6      ANOP                                                           03000000
&D       SETC  'RETIQE=&RETIQE'                                         03050000
.OUT     IHBERMAC 54,408,&D                                             03100000
         MEXIT                                                          03102000
.E7      ANOP                                                           03110000
&D       SETC  'TYPE=&TYPE'                                             03120000
         AGO   .OUT                                                     03130000
.E9      ANOP                                                           03146000
&D       SETC  'ENABLE=&ENABLE'                                         03148000
         AGO   .OUT                                                     03148400
.E10     ANOP                                                           03148800
&D       SETC  'BRANCH=&BRANCH'                                         03149200
         AGO   .OUT                                                     03149600
.E11     ANOP                                                    YM4054 03149700
&D       SETC  'RETRN=&RETRN'                                    YM4054 03149800
         AGO   .OUT                                              YM4054 03149900
.E12     ANOP                                                  @G860PXB 03150000
&D       SETC   'AMODE=&AMODE'                                 @G860PXB 03168100
         AGO    .OUT                                           @G860PXB 03186200
.E13     ANOP                                                  @G860PXB 03204300
&D       SETC   'AMODE=DEFINED'                                @G860PXB 03222400
&D2      SETC   'EP^=REGISTER'                                 @G860PXB 03240500
         IHBERMAC 1020,&D,&D2                                  @G860PXB 03258600
         MEXIT                                                 @G860PXB 03276700
         MEND                                                           03294800
**/                                                                     03312900
*  CIRB :  /*                                                        */ 03331000
*          /*                                                        */ 03350000
*          MACRO KEYS(                                                  03400000
*                     EP,         /*ENTRY POINT OF EXIT ROUTINE      */ 03450000
*                     TYPE,       /* TYPE OF IRB                     */ 03460000
*                     KEY,        /*KEY OF EXIT ROUTINE              */ 03500000
*                     MODE,       /*MODE OF ASYNCHRONOUS EXIT        */ 03550000
*                     SVAREA,     /*SAVE AREA OPTION                 */ 03600000
*                     WKAREA,     /*SIZE OF WORK AREA                */ 03650000
*                     STAB,       /*DISPOSITION OF RB                */ 03700000
*                     RETIQE,     /*INDICATES SCHEDULING OF ROUTINE  */ 03750000
*                     BRANCH,     /* BRANCH ENTRY                    */ 03760000
*                     AMODE,      /* AMODE TYPE OF EP        @G860PXB*/ 03769900
*                     RETRN       /*IQES CAN BE RETURNED       YM4054*/ 03780000
*                           );                                          03800000
*        ANS('?'||MACLABEL||'CIRBP '||MACLIST||MACKEYS||';');           03850000
*%END;                                                                  03900000
