         MACRO                                                          01000003
&NAME    CSTBL &N                                                       02000003
         LCLA  &X                       COUNTER OF TABLE ENTRIES        03000003
         LCLA  &L                       LENGTH OF TABLE ENTRIES         04000003
         LCLA  &L1                                                      05000003
         LCLA  &P                       MODULE/POCKET CODE              06000003
         AIF   ('&SYSLIST(1)' EQ 'T').G                                 07000003
&P       SETA  &SYSLIST(1)                                              08000003
         AIF   ('&SYSLIST(2)' EQ 'T').F                                 09000003
&X       SETA  2                                                        11000003
.A       AIF   ('&SYSLIST(&X)' EQ 'T').B                                12000003
         AIF   ('&SYSLIST(&X)' EQ '').B END OF ENTRIES                  13000003
&X       SETA  &X+1                     COUNTER                         14000003
         AGO   .A                                                       15000003
.B       ANOP                                                           16000003
&X       SETA  &X-2                                                     17000003
         AIF   ('&P' GE '11' AND '&P' LE '16' OR '&P' GE '21' AND '&P' X18000003
               LE '26' OR '&P' GE '31' AND '&P' LE '36' OR '&P' GE '41'X19000003
                AND '&P' LE '46' OR '&P' GE '51' AND '&P' LE '56').B1   20000003
         AIF   ('&P' GE '61' AND '&P' LE '66').B1                       21000003
         MNOTE 12,'***  IHB356  INVALID MODULE POCKET  CODE;  MP11 IS  X22000000
               ASSUMED'                                                 22500000
&NAME    DC    AL1(&X),XL1'11'          NNMP HEADER - DEFAULT MP        23000000
         AGO   .B2                                                      24000003
.B1      ANOP                                                           25000003
&NAME    DC    AL1(&X),XL1'&SYSLIST(1)'  NNMP HEADER                    26000000
.B2      ANOP                                                           27000003
&X       SETA  1                                                        28000003
&L       SETA  K'&SYSLIST(2)            LENGTH OF ENTRY                 29000003
         AIF   ((&L-(&L/2)*2) NE 1).C                                   30000003
&L1      SETA  (&L+1)/2                 YES, MAKE EVEN                  31000003
         AGO   .D                                                       32000003
.C       ANOP                                                           33000003
&L1      SETA  &L/2                     NO                              34000003
.D       ANOP                                                           35000003
&X       SETA  &X+1                                                     36000003
         AIF   ('&SYSLIST(&X)' EQ 'T').G                                37000003
         AIF   ('&SYSLIST(&X)' EQ '').END                               38000003
         AIF   (K'&SYSLIST(&X) EQ &L).E                                 39000003
         MNOTE 8,'***  IHB358  ALL TABLE ENTRIES MUST BE EQUAL LENGTH'  40000000
.E       ANOP                                                           41000003
         DC    XL&L1'&SYSLIST(&X)'      TABLE ENTRY                     42000003
         AGO   .D                                                       43000003
.F       AIF   ('&P' GE '11' AND '&P' LE '16' OR '&P' GE '21' AND '&P' X44000003
               LE '26' OR '&P' GE '31' AND '&P' LE '36' OR '&P' GE '41'X45000003
                AND '&P' LE '46' OR '&P' GE '51' AND '&P' LE '56').F1   46000003
         AIF   ('&P' GE '61' AND '&P' LE '66').F1                       47000003
         MNOTE 12,'***  IHB356  INVALID MODULE POCKET  CODE;  MP11 IS  X48000000
               ASSUMED'                                                 48500000
         DC    XL2'0011'                                                49000003
         AGO   .END                                                     50000003
.F1      ANOP                                                           51000003
         DC    XL2'00&SYSLIST(1)'                                       52000003
         AGO   .END                                                     53000003
.G       ANOP                                                           54000003
         DC    XL2'0'                                                   55000003
.END     MEND                                                           56000003
