         MACRO                                                          00800003
&NAME    CVTBL &B,&L,&S                                                 01600003
         LCLA  &BYTES                   NUMBER OF BYTES IN MASK         02400003
         LCLA  &D(16)                   DIGIT TO ADD TO MASK            03200003
         LCLA  &INC                     INCREMENT FOR NUM               04000003
         LCLA  &INCR                    INCREMENT FOR OVERFLOW NUMBER   04800003
         LCLA  &LF                      LEFT SIDE - OVERFLOW FIELD      05600003
         LCLA  &LFQUO                   LEFT SIDE QUOTIENT              06400003
         LCLA  &M(16)                   MASK                            07200003
         LCLA  &N                       SUBSCRIPT FOR D                 08000003
         LCLA  &NUM                     DECIMAL NUMBER TO CONVERT       08800003
         LCLA  &QUO                     QUOTIENT                        09600003
         LCLA  &W                       CTR IN CONVERSION LOOP          10400003
         LCLA  &X                       POINTER TO PARMS IN SKIP LIST   11200003
         LCLA  &Y                                                       12000003
         LCLA  &Z                       NUMBER OF DIGITS CONVERTED      12800003
&NAME    DS    0H                       TAB BEGINS ON EVEN BYTE BOUNDRY 14400003
         AIF   ('&B' GE '10' AND '&B' LT '37').A                        15200003
         MNOTE 12,'***  IHB362 CONVERSION MUST BE FOR BASES 10-36'      16000003
         AGO   .END                                                     16800003
.A       ANOP                                                           17600003
         DC    AL1(&B)                  NEW BASE                        18400003
         DC    XL1'0'                   UNUSED                          19200003
&X       SETA  &X+1                                                     20000003
&Y       SETA  1                                                        20800003
&INC     SETA  1                                                        21600003
&INCR    SETA  10                                                       22400003
.C       AIF   (N'&S LT &X).D                                           23200003
         AIF   (&S(&X) NE &Y).D                                         24000003
         DC    XL2'0'                   HEADER FOR SKIPPED POSITION     24800003
&X       SETA  &X+1                                                     25600003
&Y       SETA  &Y+1                                                     26400003
         AGO   .C                       CHECK NEXT DIGIT                27200003
.D       ANOP                                                           28000003
&W       SETA  &W+1                     INDICATE NUMBER OF TIMES IN RTN 28800003
         AIF   (&W EQ 1).SETUP          SETUP HEADER & MASK             29600003
*                       DECIMAL NUMBER IN NEW BASE PLUS CONSTANT        30400003
         AIF   (&Z GT 8).OVRFLW         CONVERT 10 OR MORE DIGITS       31200003
&NUM     SETA  (&W-1)*&INC              DEC. NUMBER TO CONVERT          32000003
.E       ANOP                                                           32800003
&N       SETA  &N+1                                                     33600003
&QUO     SETA  &NUM/&B                                                  34400003
&D(&N)   SETA  &NUM-(&QUO*&B)           REMAINDER                       35200003
&NUM     SETA  &QUO                                                     36000003
         AIF   (&NUM NE 0).E            COMPLETE NUMBER CONVERTED?      36800003
         AIF   (&N EQ &BYTES).F                                         37600003
&N       SETA  &BYTES                                                   38400003
&D(&N)   SETA  0                                                        39200003
.F       ANOP                                                           40000003
         DC    AL1(&M(&N)+&D(&N))                                       40800003
&N       SETA  &N-1                                                     41600003
         AIF   (&N NE 0).F                                              42400003
         AIF   (&W NE 10).D             CONVERT 9 NUMBERS               43200003
&Z       SETA  &Z+1                     NUMBER OF DIGITS CONVERTED      44000003
         AIF   ((&BYTES-(&BYTES/2)*2) NE 1).B                           44800003
         DC    XL1'0'                   PADDING FOR ODD NO. OF BYTES    45600003
.B       AIF   (&L EQ &Z).END                                           46400003
&NUM     SETA  0                                                        47200003
&INC     SETA  &INC*10                  INCREMENT TO NEXT DIGIT POSITON 48000003
&W       SETA  0                                                        48800003
&Y       SETA  &Y+1                                                     49600003
         AIF   (&Z LE 8).C                                              50400003
&INC     SETA  0                                                        51200003
&INCR    SETA  &INCR*10                                                 52000003
         AGO   .C                                                       52800003
.SETUP   ANOP                                                           53600003
         AIF   (&Z GT 8).OVFLW          LARGEST OVERFLOW NUMBER         54400003
&NUM     SETA  9*&INC                  LARGEST NUMBER FOR DEC. POSITION 55200003
.H       ANOP                                                           56000003
&N       SETA  &N+1                                                     56800003
&QUO     SETA  &NUM/&B                                                  57600003
&NUM     SETA  &QUO                     NEW NUMBER                      58400003
         AIF   (&NUM NE 0).H                                            59200003
         AIF   ((&N-(&N/2)*2) EQ 1).J   IS N ODD                        60000003
         DC    AL1(&N),AL1(&N*9)        HEADER FOR GROUP                60800003
         AGO   .K                                                       61600003
.J       DC    AL1(&N),AL1(&N*9+1)      HEADER FOR GROUP                62400003
.K       ANOP                                                           63200003
&BYTES   SETA  &N                       SAVE NUMBER OF BYTES            64000003
.I       ANOP                                                           64800003
&M(&N)   SETA  256-&B                   CONSTANT TO ADD TO CONVERTED NO 65600003
&N       SETA  &N-1                                                     66400003
         AIF   (&N NE 0).I                                              67200003
         AGO   .D                       BUILD TABLE FOR DIGIT POSITION  68000003
.OVFLW   ANOP                                                           68800003
&NUM     SETA  0000000                                                  69600003
&LF      SETA  9*&INCR                  LARGEST NUMBER FOR DEC.POSITION 70400003
.M       ANOP                                                           71200003
&LFQUO   SETA  &LF/&B                                                   72000003
&LF      SETA  &LF-(&LFQUO*&B)                                          72800003
&NUM     SETA  (&LF*10000000)+&NUM                                      73600003
&QUO     SETA  &NUM/&B                                                  74400003
&N       SETA  &N+1                                                     75200003
&LF      SETA  &LFQUO                                                   76000003
&NUM     SETA  &QUO                                                     76800003
         AIF   (&LF NE 0).M             COMPLETE LEFT SIDE DIVIDE       77600003
         AGO   .H                                                       78400003
.OVRFLW  ANOP                           CONVERT 10 OR MORE DIGITS       79200003
&NUM     SETA  0000000                  RIGHT 7 DIGITS                  80000003
&LF      SETA  (&W-1)*&INCR             LEFT DIGITS                     80800003
.L       ANOP                                                           81600003
&LFQUO   SETA  &LF/&B                   LEFT QUOTIENT                   82400003
&LF      SETA  &LF-(&LFQUO*&B)                                          83200003
&NUM     SETA  (&LF*10000000)+&NUM                                      84000003
&QUO     SETA  &NUM/&B                                                  84800003
&N       SETA  &N+1                                                     85600003
&D(&N)   SETA  &NUM-(&QUO*&B)           REMAINDER                       86400003
&LF      SETA  &LFQUO                                                   87200003
&NUM     SETA  &QUO                                                     88000003
         AIF   (&LF NE 0).L             COMPLETE LEFT SIDE DIVIDE       88800003
         AGO   .E                       CONVERT RIGHT SIDE              89600003
.END     MEND                                                           90400003
