         MACRO                                                          00800019
&NAME    DEFAREA   &LB,&P1,&P2,&P3,&P4,&P5,&P6,&P7,&P8,&P9,&P10,&P11,&PX01600001
               12,&P13,&P14,&P15,&P16,&P17,&P18,&P19,&P20,&P21,&P22,&P2X02400019
               3,&P24,&P25,&P26,&P27,&P28,&P29,&P30,&P31,&P32,&P33,&P34X03200019
               ,&P35,&P36,&P37,&P38,&P39,&P40,&P41,&P42,&P43,&P44,&P45,X04000019
               &P46,&P47,                                              X04800019
               &P48,&P49,&P50,&P51,&P52,&P53,&P54,&P55,&P56,&P57,      X05600019
               &P58,&P59,&P60,&P61,&P62,&P63,&P64,&P65,&P66,&P67,&P68,&X06400019
               P69,&P70,&P71,&P72,&P73,&P74,&P75,&P76,&P77,&P78,&P79,&PX07200019
               80,&P81,&P82,&P83,&P84,&P85,&P86,&P87,&P88,&P89,&P90,&P9X08000019
               1,&P92,&P93,&P94,&P95,&P96,&P97,&P98,&P99,&P100,&P101,&PX08800019
               102,&P103,&P104,&P105,&P106,&P107,&P108,&P109,&P110,&P11X09600019
               1,&P112,&P113,&P114,&P115,&P116,&P117,&P118,&P119,&P120,X10400019
               &P121,&P122,&P123,&P124,&P125,&P126,&P127,&P128,&P129,  X11200019
               &P130,&P131,&P132,&P133,&P134,&P135,&P136,&P137,&P138,  X12000019
               &P139,&P140,&P141,&P142,&P143,&P144,&P145,&P146,&P147,  X12800019
               &P148,&P149,&P150,&P151,&P152,&P153,&P154,&P155,        X13600019
               &P156,&P157,&P158,&P159,&P160,&P161,&P162,&P163,&P164,  X14400019
               &P165,&P166,&P167,&P168,&P169,&P170,&P171,&P172,&P173,  X15200019
               &P174,&P175,&P176,&P177,&P178,&P179,&P180,&P181,&P182,  X16000019
               &P183,&P184,&P185,&P186,&P187,&P188,&P189,&P190,&P191,  X16800019
               &P192,&P193,&P194,&P195,&P196,&P197,&P198                17600019
.*                                                                      17650002
.* MODULE-NAME=DEFAREA(OS/VS2)MACRO                            @YM00638 17700002
.*                                                                      17750002
.* DESCRIPTIVE-NAME=DEFINE INPUT AREA                          @YM00638 17800002
.*                                                                      17850002
.* COPYRIGHT=NONE                                              @YM00638 17900002
.*                                                                      17950002
         GBLA  &CNTS(2000)                                     @YA00407 18000002
         LCLA  &FLDLN                                                   18600001
         LCLA  &A1,&COUNT,&FC,&TMSCT,&NX                                19300001
         LCLB  &NOGEN,&FLAG,&CNTR,&RGHT                                 20000019
.DA000   ANOP                                                           20100001
&NX      SETA  &NX+1                                                    20200001
&CNTS(&NX) SETA 0                                                       20300001
         AIF   (&NX NE 198).DA000                                       20400001
         AIF   (T'&LB NE 'O' AND K'&LB LE 4).DA001                      20800001
         IHBERMAC 209                                                   21600019
&NOGEN   SETB  1                                                        22400019
.DA001   ANOP                                                           23200019
&A1      SETA 1                                                         24000019
         AIF   (T'&NAME EQ 'O').DA002                                   24200019
&NAME    EQU   *                                                        24400019
.DA002   ANOP                                                           24800019
&A1      SETA  &A1+1                                                    25600019
         AIF   (T'&SYSLIST(&A1) NE 'O').DA003                           26400019
         MEXIT                                                          27200019
.DA003   AIF   ('&SYSLIST(&A1)'(K'&SYSLIST(&A1),1) GE '0' AND '&SYSLISTX28000019
               (&A1)'(K'&SYSLIST(&A1),1) LE '9').DA015                  28800019
.DA010   AIF   ('&SYSLIST(&A1)' NE 'FLAG').DA011                        29600019
&FLAG    SETB  1                                                        30400019
         AGO   .DA002                                                   31200019
.DA011   AIF   ('&SYSLIST(&A1)' NE 'CNTR').DA012                        32000019
&CNTR    SETB  1                                                        32800019
         AGO   .DA002                                                   33600019
.DA012   AIF   ('&SYSLIST(&A1)' NE 'RIGHT').DA013                       34400019
&RGHT    SETB  1                                                        35200019
         AGO   .DA002                                                   36000019
.DA013   AIF   ('&SYSLIST(&A1)' NE 'TIMES').DA014                       36800019
         IHBERMAC 211                                                   37600019
&NOGEN   SETB  1                                                        38400019
         AGO   .DA002                                                   39200019
.DA014   IHBERMAC 210                                                   40000019
&NOGEN   SETB  1                                                        40800019
         AGO   .DA002                                                   41600019
.DA015   ANOP                                                           42400019
         AIF   (T'&SYSLIST(&A1) NE 'O').DA0155                          43200019
         MEXIT                                                          44000019
.DA0155  ANOP                                                           44800019
&COUNT   SETA  K'&SYSLIST(&A1)                                          45600019
.DA016   AIF   ('&SYSLIST(&A1)'(&COUNT,1) LT '0' OR '&SYSLIST(&A1)'(&COX46400019
               UNT,1) GT '9').DA017                                     47200019
&COUNT   SETA  &COUNT-1                                                 48000019
         AIF   (&COUNT EQ 0).DA019                                      48800019
         AGO   .DA016                                                   49600019
.DA017   AIF   ('&SYSLIST(&A1)' EQ 'FLAG').DA018                        50400019
         AIF   ('&SYSLIST(&A1)' EQ 'CNTR').DA018                        51200019
         AIF   ('&SYSLIST(&A1)' EQ 'RIGHT').DA018                       52000019
         IHBERMAC 210                                                   52800019
&NOGEN   SETB  1                                                        53600019
&A1      SETA  &A1+1                                                    54400019
         AGO   .DA015                                                   55200019
.DA018   IHBERMAC 213                                                   56000019
&A1      SETA  &A1+1                                                    56800019
         AGO   .DA015                                                   57600019
.DA019   ANOP                                                           58400019
&FLDLN   SETA  &SYSLIST(&A1)                                            59600019
         AIF   (&NOGEN EQ 0).DA020                                      60000019
&A1      SETA  &A1+1                                                    60800019
         AGO   .DA015                                                   61600019
.DA020   ANOP                                                           62400019
&FC      SETA  &FC+1                                                    62800001
         AIF   (&FLDLN LT 257).DA021                                    63300001
&CNTS(&FC) SETA &FLDLN                                                  63400001
&LB&FC   DC    &FLDLN.X'00'                                             63500001
         AGO   .DA022                                                   63600001
.DA021   ANOP                                                           63700001
&LB&FC   DC    XL&FLDLN.'00'                                            64200001
.DA022   AIF   (&RGHT EQ 0).DA023                                       64800019
&LB&FC.R EQU   *-1                                                      65600001
.DA023   AIF   (&FLAG EQ 0).DA024                                       66400019
&LB&FC.F DC    X'00'                                                    67200001
.DA024   AIF   (&CNTR EQ 0).DA025                                       68000019
&LB&FC.C DC    3X'00'                                                   68800001
.DA025   AIF   (&TMSCT EQ 0).DA026                                      69600019
&TMSCT   SETA  &TMSCT-1                                                 70400019
         AGO   .DA020                                                   71200019
.DA026   ANOP                                                           72000019
&A1      SETA  &A1+1                                                    72800019
         AIF   (T'&SYSLIST(&A1) NE 'O').DA027                           73600019
         MEXIT                                                          74400019
.DA027   ANOP                                                           75200019
         AIF   ('&SYSLIST(&A1)' NE 'TIMES').DA015                       76000019
&A1      SETA  &A1+1                                                    76800019
         AIF   ('&SYSLIST(&A1)'(1,1) GT '0' AND '&SYSLIST(&A1)'(1,1) LEX77600019
               '9').DA028                                               78400019
         IHBERMAC 212                                                   79200019
&NOGEN   SETB  1                                                        80000019
         AGO   .DA015                                                   80800019
.DA028   ANOP                                                           81600019
&A1      SETA  &A1-3                                                    82400019
         AIF   ('&SYSLIST(&A1)' NE 'TIMES').DA029                       83200019
         IHBERMAC 211                                                   84000019
&NOGEN   SETB  1                                                        84800019
&A1      SETA  &A1+3                                                    85600019
         AGO   .DA015                                                   86400019
.DA029   ANOP                                                           87200019
&A1      SETA  &A1+3                                                    88000019
&TMSCT   SETA  &SYSLIST(&A1)-2                                          88800019
         AGO   .DA020                                                   89600019
         MEND                                                           90400019
