         MACRO                                                          00200019
&NAME    DEFCCW &CINF,&LABP,&P1,&P2,&P3,&P4,&P5,&P6,&P7,&P8,&P9,&P10,&PX00400019
               11,&P12,&P13,&P14,&P15,&P16,&P17,&P18,&P19,&P20,&P21,&P2X00600019
               2,&P23,&P24,&P25,&P26,&P27,&P28,&P29,&P30,&P31,&P32,&P33X00800019
               ,&P34,&P35,&P36,&P37,&P38,&P39,&P40,&P41,&P42,&P43,&P44,X01000019
               &P45,&P46,&P47,&P48,&P49,&P50,&P51,&P52,&P53,&P54,&P55,&P01200019
               P56,&P57,&P58,&P59,&P60,&P61,&P62,&P63,&P64,&P65,&P66,&PX01400019
               67,&P68,&P69,&P70,&P71,&P72,&P73,&P74,&P75,&P76,&P77,&P7X01600019
               8,&P79,&P80,&P81,&P82,&P83,&P84,&P85,&P86,&P87,&P88,    X01800019
               &P89,&P90,&P91,&P92,&P93,&P94,&P95,&P96,&P97,&P98,&P99, X02000019
               &P100,&P101,&P102,&P103,&P104,&P105,&P106,&P107,&P108,&PX02200019
               109,&P110,&P111,&P112,&P113,&P114,&P115,&P116,&P117,&P11X02400019
               8,&P119,&P120,&P121,&P122,&P123,&P124,&P125,&P126,&P127,X02600019
               &P128,&P129,&P130,&P131,&P132,&P133,&P134,&P135,&P136,&P102800019
               137,&P138,&P139,&P140,&P141,&P142,&P143,&P144,&P145,&P14603000019
               6,&P147,&P148,&P149,&P150,&P151,&P152,&P153,&P154,&P155,X03200019
               &P156,&P157,&P158,&P159,&P160,&P161,&P162,&P163,&P164,&PX03400019
               165,&P166,&P167,&P168,&P169,&P170,&P171,&P172,&P173,&P17X03600019
               4,&P175,&P176,&P177,&P178,&P179,&P180,&P181,&P182,&P183,&03800019
               &P184,&P185,&P186,&P187,&P188,&P189,&P190,&P191,&P192,&PX04000019
               193,&P194,&P195,&P196,&P197,&P198                        04200019
.*                                                                      04250002
.* MODULE-NAME=DEFCCW(OS/VS2)MACRO                             @YM00638 04260002
.*                                                                      04270002
.* DESCRIPTIVE-NAME=DEFINE CHANNEL PROGRAM                     @YM00638 04280002
.*                                                                      04290002
.* COPYRIGHT=NONE                                              @YM00638 04292002
.*                                                                      04294002
         GBLA  &CNTS(2000)                                     @YA00405 04300002
         LCLA  &A1,&B1,&CIC,&CTR,&FLDNM,&NX                             04400001
         LCLB  &CNCSW,&SLISW,&NOGEN,&UNFSW,&FORMSW,&RBF,&RB,&FT  A33937 04600001
         LCLC  &RCCW,&ESDC,&RBCC,&FLEN                                  04800019
.*A057000,086500-087500,125000,127000-129000,522300-523500,      A33937 04840001
.*A582600,583200                                                 A33937 04880001
.*C046000,100000,110000,130000,584000,588000                     A33937 04920001
.*D128000,574000                                                 A33937 04960001
.*A181000                                                        A39681 04980001
&RCCW    SETC  'X''0C'''                                                05000019
&RB      SETB  1                                                        05200019
&CNCSW   SETB  1                                                        05400019
&SLISW   SETB  1                                                        05600019
&FORMSW  SETB  1                                                 A33937 05700001
         AIF   (T'&CINF NE 'O').DC000                                   05800019
         IHBERMAC 214                                                   06000019
&NOGEN   SETB  1                                                        06200019
.DC000   AIF   ('&CINF'(1,1) LT '0').DC001                              06400019
         IHBERMAC 214                                                   06600019
&NOGEN   SETB  1                                                        06800019
.DC001   AIF   (T'&LABP NE 'O' AND K'&LABP LE 4).DC002                  07000019
         IHBERMAC 215                                                   07200019
&NOGEN   SETB  1                                                        07400019
.DC002   ANOP                                                           07600019
&A1      SETA  2                                                        07800019
         AIF   (T'&NAME EQ 'O').DC003                                   08000019
&NAME    DS    0D                                                       08200019
.DC003   ANOP                                                           08400019
&A1      SETA  &A1+1                                                    08600019
.DC0031  ANOP                                                    A33937 08650001
         AIF   (T'&SYSLIST(&A1) EQ 'O').DC054                    A33937 08700001
&FT      SETB  0                                                 A33937 08750001
         AIF   ('&SYSLIST(&A1)'(1,1) GE '0' AND '&SYSLIST(&A1)'(1,1) LEX08800019
               '9').DC006                                               09000019
         AIF   ('&SYSLIST(&A1)' NE 'UNFORMAT').DC004                    09200019
&FORMSW  SETB  0                                                        09400019
&A1      SETA  &A1+1                                                    09600019
         AGO   .DC008                                                   09800019
.DC004   AIF   ('&SYSLIST(&A1)' NE 'REFMARK').DC007              A33937 10000001
&A1      SETA  &A1+1                                                    10200019
         AIF   ('&SYSLIST(&A1)'(1,1) LT '0').DC005                      10400019
         IHBERMAC 228                                                   10600019
&NOGEN   SETB  1                                                        10800019
         AGO   .DC008                                            A33937 11000001
.DC005   ANOP                                                           11200019
&FORMSW  SETB  1                                                        11400019
         CCW   X'53',&SYSLIST(&A1),X'40',4                              11600019
&A1      SETA  &A1+1                                                    11800019
         AGO   .DC008                                                   12000019
.DC006   IHBERMAC 216                                                   12200019
&FORMSW  SETB  1                                                        12400019
         AGO   .DC008                                            A33937 12500001
.DC007   ANOP                                                           12600019
&FT      SETB  1                                                 A33937 12700001
         AGO   .DC0081                                           A33937 12800001
.DC008   AIF   (&FT EQ 1).DC0031                                 A33937 12900001
.DC0081  AIF   (T'&SYSLIST(&A1) EQ 'O').DC054                    A33937 13000001
         AIF   ('&SYSLIST(&A1)' NE 'DEFMODE').DC0083                    13010001
&A1      SETA  &A1+1                                                    13020001
         AIF   ('&SYSLIST(&A1)'(1,1) LT '0').DC0082                     13030001
         IHBERMAC 214                                                   13040001
&NOGEN   SETB  1                                                        13050001
         AGO   .DC008                                                   13060001
.DC0082  CCW   X'53',&SYSLIST(&A1),X'40',4                              13070001
&A1      SETA  &A1+1                                                    13080001
         AGO   .DC008                                                   13090001
.DC0083  ANOP                                                           13100001
         AIF   ('&SYSLIST(&A1)' NE 'SLION').DC009                       13200019
&SLISW   SETB  1                                                        13400019
&A1      SETA  &A1+1                                                    13600019
         AGO   .DC008                                                   13800019
.DC009   AIF   ('&SYSLIST(&A1)' NE 'SLIOFF').DC010                      14000019
&SLISW   SETB  0                                                        14200019
&A1      SETA  &A1+1                                                    14400019
         AGO   .DC008                                                   14600019
.DC010   AIF   ('&SYSLIST(&A1)' NE 'CHAIN').DC011                       14800019
&CNCSW   SETB  1                                                        15000019
&A1      SETA  &A1+1                                                    15200019
         AGO   .DC008                                                   15400019
.DC011   AIF   ('&SYSLIST(&A1)' NE 'NOCHAIN').DC012                     15600019
&CNCSW   SETB  0                                                        15800019
&A1      SETA  &A1+1                                                    16000019
         AGO   .DC008                                                   16200019
.DC012   AIF   ('&SYSLIST(&A1)' NE 'LABEL').DC014                       16400019
&A1      SETA  &A1+1                                                    16600019
         AIF   ('&SYSLIST(&A1)'(1,1) LT '0' AND T'&SYSLIST(&A1) NE 'O')C16800019
               .DC013                                                   17000019
         IHBERMAC 222                                                   17200019
&A1      SETA  &A1+1                                                    17400019
&NOGEN   SETB  1                                                        17600019
         AGO   .DC008                                                   17800019
.DC013   ANOP                                                           18000019
         DS    0D                                                A39681 18100001
&SYSLIST(&A1) EQU *                                                     18200019
&A1      SETA  &A1+1                                                    18400019
         AGO   .DC008                                                   18600019
.DC014   AIF   ('&SYSLIST(&A1)' NE 'UNFORMAT').DC015                    18800019
         AIF   (&FORMSW EQ 1).DC0141                                    19000019
&CIC     SETA  &CIC+4                                                   19200019
&A1      SETA  &A1+1                                                    19400019
         AGO   .DC008                                                   19600019
.DC0141  ANOP                                                           19800019
&FORMSW  SETB  0                                                        20000019
&B1      SETA  &A1                                                      20200019
.DC0142  ANOP                                                           20400019
&B1      SETA  &B1+1                                                    20600019
         AIF   ('&SYSLIST(&B1)'(1,1) LT '0').DC0142                     20800019
&CIC     SETA  &SYSLIST(&B1)*4-4                                        21000019
&A1      SETA  &A1+1                                                    21200019
         AGO   .DC008                                                   21400019
.DC015   AIF   ('&SYSLIST(&A1)' NE 'RB').DC016                          21600019
&RB      SETB  1                                                        21800019
&RCCW    SETC  'X''0C'''                                                22000019
&A1      SETA  &A1+1                                                    22200019
         AGO   .DC008                                                   22400019
.DC016   AIF   ('&SYSLIST(&A1)' NE 'RBDC').DC017                        22600019
&RB      SETB  1                                                        22800019
&RCCW    SETC  'X''2C'''                                                23000019
&A1      SETA  &A1+1                                                    23200019
         AGO   .DC008                                                   23400019
.DC017   AIF   ('&SYSLIST(&A1)' NE 'RBOC').DC018                        23600019
&RB      SETB  1                                                        23800019
&RCCW    SETC  'X''4C'''                                                24000019
&A1      SETA  &A1+1                                                    24200019
         AGO   .DC008                                                   24400019
.DC018   AIF   ('&SYSLIST(&A1)' NE 'RF').DC019                          24600019
&RB      SETB  0                                                        24800019
&RCCW    SETC  'X''12'''                                                25000019
&A1      SETA  &A1+1                                                    25200019
         AGO   .DC008                                                   25400019
.DC019   AIF   ('&SYSLIST(&A1)' NE 'RFDC').DC020                        25600019
&RB      SETB  0                                                        25800019
&RCCW    SETC  'X''32'''                                                26000019
&A1      SETA  &A1+1                                                    26200019
         AGO   .DC008                                                   26400019
.DC020   AIF   ('&SYSLIST(&A1)' NE 'RBDCOC').DC021                      26600019
&RB      SETB  1                                                        26800019
&RCCW    SETC  'X''6C'''                                                27000019
&A1      SETA  &A1+1                                                    27200019
         AGO   .DC008                                                   27400019
.DC021   AIF   ('&SYSLIST(&A1)' NE 'COMPARE').DC025                     27600019
&A1      SETA  &A1+1                                                    27800019
         AIF   ('&SYSLIST(&A1)'(1,1) LT '0' AND T'&SYSLIST(&A1) NE 'O')X28000019
               .DC022                                                   28200019
         IHBERMAC 225                                                   28400019
&NOGEN   SETB  1                                                        28600019
         AGO   .DC008                                                   28800019
.DC022   ANOP                                                           29000019
&A1      SETA  &A1+1                                                    29200019
         AIF   ('&SYSLIST(&A1)'(1,1) LT '0' AND T'&SYSLIST(&A1) NE 'O')X29400019
               .DC023                                                   29600019
         IHBERMAC 225                                                   29800019
&NOGEN   SETB  1                                                        30000019
         AGO   .DC008                                                   30200019
.DC023   AIF   (&NOGEN EQ 0).DC024                                      30400019
&A1      SETA  &A1+1                                                    30600019
         AGO   .DC008                                                   30800019
.DC024   ANOP                                                           31000019
&A1      SETA  &A1-1                                                    31200019
         CCW   X'5B',&SYSLIST(&A1),X'40',1                              31400019
&A1      SETA  &A1+1                                                    31600019
         CCW   X'08',&SYSLIST(&A1),X'00',1                              31800019
&A1      SETA  &A1+1                                                    32000019
         AGO   .DC008                                                   32200019
.DC025   AIF   ('&SYSLIST(&A1)' NE 'BRANCH').DC028                      32400019
&A1      SETA  &A1+1                                                    32600019
         AIF   ('&SYSLIST(&A1)'(1,1) LT '0' AND T'&SYSLIST(&A1) NE 'O')X32800019
               .DC026                                                   33000019
         IHBERMAC 226                                                   33200019
&NOGEN   SETB  1                                                        33400019
         AGO   .DC008                                                   33600019
.DC026   AIF   (&NOGEN EQ 0).DC027                                      33800019
&A1      SETA  &A1+1                                                    34000019
         AGO   .DC008                                                   34200019
.DC027   CCW   X'08',&SYSLIST(&A1),X'00',1                              34400019
&A1      SETA  &A1+1                                                    34600019
         AGO   .DC008                                                   34800019
.DC028   AIF   ('&SYSLIST(&A1)' NE 'NOP').DC030                         35000019
         AIF   (&NOGEN EQ 0).DC029                                      35200019
&A1      SETA  &A1+1                                                    35400019
         AGO   .DC008                                                   35600019
.DC029   CCW   X'03',1,B'0&CNCSW.000000',1                              35800019
&A1      SETA  &A1+1                                                    36000019
         AGO   .DC008                                                   36200019
.DC030   AIF   ('&SYSLIST(&A1)' NE 'REFMARK').DC033                     36400019
&A1      SETA  &A1+1                                                    36600019
         AIF   (&FORMSW EQ 1).DC0301                                    36800019
         IHBERMAC 217                                                   37000019
&NOGEN   SETB  1                                                        37200019
.DC0301  ANOP                                                           37400019
         AIF   ('&SYSLIST(&A1)'(1,1) LT '0' AND T'&SYSLIST(&A1) NE 'O')X37600019
               .DC031                                                   37800019
         IHBERMAC 228                                                   38000019
         AGO   .DC008                                                   38200019
.DC031   AIF   (&NOGEN EQ 0).DC032                                      38400019
&A1      SETA  &A1+1                                                    38600019
         AGO   .DC008                                                   38800019
.DC032   CCW   X'53',&SYSLIST(&A1),X'40',4                              39000019
&A1      SETA  &A1+1                                                    39200019
         AGO   .DC008                                                   39400019
.DC033   AIF   ('&SYSLIST(&A1)' NE 'ESD').DC039                         39600019
&A1      SETA  &A1+1                                                    39800019
         AIF   ('&SYSLIST(&A1)' GE '1' AND '&SYSLIST(&A1)' LE '4').DC03C40000019
               4                                                        40200019
         IHBERMAC 227                                                   40400019
&NOGEN   SETB  1                                                        40600019
         AGO   .DC008                                                   40800019
.DC034   AIF   (&NOGEN EQ 0).DC035                                      41000019
&A1      SETA  &A1+1                                                    41200019
         AGO   .DC008                                                   41400019
.DC035   AIF   ('&SYSLIST(&A1)' GT '1').DC036                           41600019
&ESDC    SETC  'X''63'''                                                41800019
         AGO   .DC038                                                   42000019
.DC036   AIF   ('&SYSLIST(&A1)' NE '3').DC037                           42200019
&ESDC    SETC  'X''73'''                                                42400019
         AGO   .DC038                                                   42600019
.DC037   ANOP                                                           42800019
         AIF   ('&SYSLIST(&A1)' EQ '4').DC0375                          43000019
&ESDC    SETC  'X''6B'''                                                43200019
         AGO   .DC038                                                   43400019
.DC0375  ANOP                                                           43600019
&ESDC    SETC  'X''7B'''                                                43800019
.DC038   CCW   &ESDC,1,B'0&CNCSW.000000',1                              44000019
&A1      SETA  &A1+1                                                    44200019
         AGO   .DC008                                                   44400019
.DC039   AIF   ('&SYSLIST(&A1)' NE 'INC').DC041                         44600019
         AIF   (&NOGEN EQ 0).DC040                                      44800019
&A1      SETA  &A1+1                                                    45000019
         AGO   .DC008                                                   45200019
.DC040   CCW   X'4B',1,B'0&CNCSW.000000',1                              45400019
&A1      SETA  &A1+1                                                    45600019
         AGO   .DC008                                                   45800019
.DC041   AIF   ('&SYSLIST(&A1)' NE 'RBT').DC042                         46000019
&RBCC    SETC  'X''1C'''                                                46200019
&RBF     SETB  0                                                        46400019
         AGO   .DC047                                                   46600019
.DC042   AIF   ('&SYSLIST(&A1)' NE 'RBTDC').DC043                       46800019
&RBCC    SETC  'X''3C'''                                                47000019
&RBF     SETB  0                                                        47200019
         AGO   .DC047                                                   47400019
.DC043   AIF   ('&SYSLIST(&A1)' NE 'RBTOC').DC044                       47600019
&RBCC    SETC  'X''5C'''                                                47800019
&RBF     SETB  0                                                        48000019
         AGO   .DC047                                                   48200019
.DC044   AIF   ('&SYSLIST(&A1)' NE 'RBTDCOC').DC045                     48400019
&RBCC    SETC  'X''7C'''                                                48600019
&RBF     SETB  0                                                        48800019
         AGO   .DC047                                                   49000019
.DC045   AIF   ('&SYSLIST(&A1)' NE 'RFT').DC046                         49200019
&RBCC    SETC  'X''92'''                                                49400019
&RBF     SETB  1                                                        49600019
         AGO   .DC047                                                   49800019
.DC046   AIF   ('&SYSLIST(&A1)' NE 'RFTDC').DC053                       50000019
&RBCC    SETC  'X''B2'''                                       @YA00411 50200002
&RBF     SETB  1                                                        50400019
.DC047   ANOP                                                           50600019
&A1      SETA  &A1+1                                                    50800019
         AIF   ('&SYSLIST(&A1)'(1,1) GE '0' AND '&SYSLIST(&A1)'(1,1) LEX51000019
                '9').DC048                                              51200019
         IHBERMAC 223                                                   51400019
&NOGEN   SETB  1                                                        51600019
&A1      SETA  &A1+1                                                    51800019
         AGO   .DC008                                                   52000019
.DC048   ANOP                                                           52200019
         AIF   (&FT EQ 0).DC0481                                 A33937 52230001
&FT      SETB  0                                                 A33937 52260001
&FORMSW  SETB  1                                                 A33937 52290001
         IHBERMAC 216                                            A33937 52320001
.DC0481  ANOP                                                    A33937 52350001
&A1      SETA  &A1+1                                                    52400019
         AIF   ('&SYSLIST(&A1)'(1,1) LT '0' AND T'&SYSLIST(&A1) NE 'O')C52600019
               .DC049                                                   52800019
         IHBERMAC 224                                                   53000019
&A1      SETA  &A1+1                                                    53200019
&NOGEN   SETB  1                                                        53400019
         AGO   .DC008                                                   53600019
.DC049   AIF   (&NOGEN EQ 0).DC050                                      53800019
&A1      SETA  &A1+1                                                    54000019
         AGO   .DC008                                                   54200019
.DC050   ANOP                                                           54400019
&A1      SETA  &A1-1                                                    54600019
         AIF   (&FORMSW EQ 0).DC0501                                    54800019
&CIC     SETA  &SYSLIST(&A1)*4-4                                        55000019
.DC0501  CCW   X'53',&CINF.+&CIC,B'0&CNCSW.000000',4                    55200019
&NX      SETA  &SYSLIST(&A1)                                            55230001
&FLEN    SETC  '&CNTS(&NX)'                                             55260001
&NX      SETA  &FLEN                                                    55320001
         AIF   (&NX GT 256).DC0502                                      55350001
&FLEN    SETC  'L''&LABP&SYSLIST(&A1)'                                  55400019
.DC0502  AIF   (&RBF EQ 1).DC051                                        55600001
         CCW   &RBCC,&LABP&SYSLIST(&A1).+&FLEN.-1,B'0&CNCSW&SLISW.00000C55800019
               ',&FLEN                                                  56000019
         AGO   .DC052                                                   56200019
.DC051   CCW   &RBCC,&LABP&SYSLIST(&A1),B'0&CNCSW&SLISW.00000',&FLEN    56400019
.DC052   ANOP                                                           56600019
&A1      SETA  &A1+1                                                    56800019
         CCW   X'08',&SYSLIST(&A1),X'00',1                              57000019
&A1      SETA  &A1+1                                                    57200019
         AGO   .DC008                                                   57600019
.DC053   AIF   ('&SYSLIST(&A1)'(1,1) GE '0' AND '&SYSLIST(&A1)'(1,1) LEX57800019
                '9').DC057                                              58000019
         AGO   .DC055                                                   58200019
.DC054   AIF   (&FT EQ 0).DC0541                                 A33937 58300001
         IHBERMAC 216                                           &A33937 58400001
.DC0541  AIF   (&CNCSW EQ 0).DC0542                              A33937 58500001
         IHBERMAC 221                                                   58600019
.DC0542  MEXIT                                                   A33937 58800001
.DC055   AIF   ('&SYSLIST(&A1)' NE 'THRU').DC056                        59000019
         IHBERMAC 218                                                   59200019
&NOGEN   SETB  1                                                        59400019
&A1      SETA  &A1+1                                                    59600019
         AGO   .DC008                                                   59800019
.DC056   IHBERMAC 210                                                   60000019
&NOGEN   SETB  1                                                        60200019
&A1      SETA  &A1+1                                                    60400019
         AGO   .DC008                                                   60600019
.DC057   ANOP                                                           60800019
         AIF   (&FORMSW EQ 0).DC0571                                    61000019
&CIC     SETA  &SYSLIST(&A1)*4-4                                        61200019
.DC0571  ANOP                                                           61400019
&FLDNM   SETA  &SYSLIST(&A1)                                            61600019
         AIF   ('&SYSLIST(&A1+1)' EQ 'THRU').DC058                      61800019
&CTR     SETA  1                                                        62000019
         AGO   .DC060                                                   62200019
.DC058   AIF   ('&SYSLIST(&A1)'(1,1) GE '0' AND '(&SYSLIST(&A1)'(1,1) LX62400019
               E '9').DC059                                             62600019
         IHBERMAC 218                                                   62800019
&NOGEN   SETB  1                                                        63000019
&A1      SETA  &A1+3                                                    63200019
         AGO   .DC008                                                   63400019
.DC059   ANOP                                                           63600019
         AIF   ('&SYSLIST(&A1+2)'(1,1) GE '0' AND '&SYSLIST(&A1+2)'(1,1?63800019
               ) LE '9').DC0591                                         64000019
         IHBERMAC 219                                                   64200019
&NOGEN   SETB  1                                                        64400019
&A1      SETA  &A1+3                                                    64600019
         AGO   .DC008                                                   64800019
.DC0591  ANOP                                                           65000019
&CTR     SETA  &SYSLIST(&A1+2)-&SYSLIST(&A1)+1                          65200019
         AIF   (&CTR GE 0).DC060                                        65400019
         IHBERMAC 220                                                   65600019
&NOGEN   SETB  1                                                        65800019