*%/*                                                                    03050000
         MACRO                                                          03100000
&NAME    DELETE &EP=,&EPLOC=,&DE=,&RELATED=                             03150000
.********************************************************************** 03200000
.*                                                                    * 03250000
.* COPYRIGHT =                                                        * 03300000
.*      5740-XYN COPYRIGHT IBM CORP 1981,                             * 03350000
.*      LICENSED MATERIAL-PROGRAM, PROPERTY OF IBM                    * 03400000
.*      REFER TO COPYRIGHT INSTRUCTIONS FORM NUMBER G120-2083         * 03450000
.*                                                                    * 03500000
.* STATUS = OS/VS2  JBB1326                                           * 03550000
.*                                                                    * 03600000
.*                                                                    * 03650000
.********************************************************************** 03700000
         AIF   ('&EP' NE '').EPPRES                                     09000000
         AIF   ('&EPLOC' EQ '' AND '&DE' EQ '').E1 BOTH MISSING         12000000
         AIF   ('&EPLOC' NE '' AND '&DE' NE '').E2 BOTH PRESENT         15000000
&NAME    IHBINNRA ,&EPLOC&DE                LOAD REG 0                  18000000
         AGO   .SVC                                                     21000000
.EPPRES  AIF   ('&EPLOC' NE '' OR '&DE' NE '').E2                       24000000
&NAME    BAL   0,*+12                            LOAD ADDR OF EP SYMBOL 27000000
         DC    CL8'&EP'                          EP SYMBOL              30000000
.SVC     SVC   9                                 ISSUE DELETE SVC       33000000
         MEXIT                                                          36000000
.E1      IHBERMAC 01,318                    PARAM MISSING               39000000
         MEXIT                                                          42000000
.E2      IHBERMAC 88,318                    TWO MANY PARAMS             45000000
         MEND                                                           48000000
**/                                                                     48050000
*DELETE: MACRO                                                          48100000
*        KEYS(EP,DE,RTCD,RELATED);                                      48150000
*        ANS('?'||MACLABEL||'DELETEP '||MACLIST||MACKEYS||';');         48200000
*%END;                                                                  48250000
