*%/*                                                                    00060002
         MACRO                                                          00070002
&NAME    DEQ   &PARAM,&RMC=,&RET=,&UCB=,&TCB=,&GENERIC=NO,&MF=I, X02113X00100002
               &RNL=,&RELATED=,&LOC=                               @01C 00125000
         GBLB  &IHBDEQ                                             SDS1 00150002
.*** START OF SPECIFICATIONS                                            00153800
.*                                                                      00157600
.*01*  MODULE-NAME = DEQ                                                00161400
.*                                                                      00165200
.*01* PROPRIETARY STATEMENT =                                           00167200
.*                                                                      00169200
.*     LICENSED MATERIALS - PROPERTY OF IBM                             00171200
.*     THIS MACRO IS "RESTRICTED MATERIALS OF IBM"                      00173200
.*     5695-047 (C) COPYRIGHT IBM CORP. 1981, 1990                      00175200
.*                                                                      00177200
.*01* STATUS = HBB4410                                                  00179200
.*                                                                      00181200
.*01* EXTERNAL CLASSIFICATION: GUPI                                     00183200
.*01* END OF EXTERNAL CLASSIFICATION:                                   00185200
.*                                                                      00188000
.*01* CHANGE-ACTIVITY =                                                 00192500
.*                                                                      00194600
.*  $P1=PEO1730 HBB4410 890515 PDDX: ADD MACRO DATE                @P1A 00194700
.*  $D1=DEO0156 HBB4410 890515 PDDX: RNL=NO SUPPORT - DCR 156      @D1A 00194800
.*  $01=OW11070 HBB4420 950303 PDHB: Add support for LOC keyword with   00194900
.*                                   RESERVE and DEQ.  DCR 105     @01A 00195000
.*                                                                      00195200
.***** END OF SPECIFICATIONS                                            00195600
.*0460 000000-999999                                               SDS1 00200002
*        MACRO-DATE = 05/05/95                                     @01C 00225000
&IHBDEQ  SETB  1                                                   SDS1 00250002
         AIF   ('&TCB' NE '').DEQTCB                             X02113 00300002
         AIF   ('&GENERIC' NE 'NO' AND '&RMC' NE '').ERR02       X02113 00350002
         AIF   ('&RMC' EQ '' AND '&RET' EQ '' AND '&UCB' EQ '').DEQ010  00400002
         AIF   ('&RMC' EQ '' AND '&RET' EQ '').DEQ020              SDS1 00450002
         AIF   ('&RMC' EQ '' AND '&UCB' EQ '').DEQ030              SDS1 00500002
         AIF   ('&RET' EQ '' AND '&UCB' EQ '').DEQ040              SDS1 00550002
         AIF   ('&RMC' EQ '').DEQ050                               SDS1 00600002
         AIF   ('&RET' EQ '').DEQ060                               SDS1 00650002
         AIF   ('&UCB' EQ '').DEQ070                               SDS1 00700002
&NAME    ENQ   &PARAM,SMC=&RMC,RET=&RET,UCB=&UCB,MF=&MF,RNL=&RNL,      X00733300
               LOC=&LOC                                            @01C 00766600
         AGO   .DEQ080                                             SDS1 00800002
.DEQ010  ANOP                                                      SDS1 00850002
&NAME    ENQ   &PARAM,GENERIC=&GENERIC,MF=&MF,RNL=&RNL,LOC=&LOC    @01C 00900000
         AGO   .DEQ080                                             SDS1 00950002
.DEQ020  ANOP                                                      SDS1 01000002
&NAME    ENQ   &PARAM,UCB=&UCB,GENERIC=&GENERIC,MF=&MF,RNL=&RNL,       X01033300
               LOC=&LOC                                            @01C 01066600
         AGO   .DEQ080                                             SDS1 01100002
.DEQ030  ANOP                                                      SDS1 01150002
&NAME    ENQ   &PARAM,RET=&RET,GENERIC=&GENERIC,MF=&MF,RNL=&RNL,       X01183300
               LOC=&LOC                                            @01C 01216600
         AGO   .DEQ080                                             SDS1 01250002
.DEQ040  ANOP                                                      SDS1 01300002
&NAME    ENQ   &PARAM,SMC=&RMC,MF=&MF,RNL=&RNL,LOC=&LOC            @01C 01350000
         AGO   .DEQ080                                             SDS1 01400002
.DEQ050  ANOP                                                      SDS1 01450002
&NAME    ENQ   &PARAM,RET=&RET,UCB=&UCB,MF=&MF,GENERIC=&GENERIC,       X01483300
               RNL=&RNL,LOC=&LOC                                   @01C 01516600
         AGO   .DEQ080                                             SDS1 01550002
.DEQ060  ANOP                                                      SDS1 01600002
&NAME    ENQ   &PARAM,SMC=&RMC,UCB=&UCB,MF=&MF,RNL=&RNL,LOC=&LOC   @01C 01650000
         AGO   .DEQ080                                             SDS1 01700002
.DEQ070  ANOP                                                      SDS1 01750002
&NAME    ENQ   &PARAM,SMC=&RMC,RET=&RET,MF=&MF,RNL=&RNL,LOC=&LOC   @01C 01800000
         AGO   .DEQ080                                           X02113 01850002
.DEQTCB  ANOP                                                    X02113 01900002
         AIF   ('&RMC' NE '').ERR01    RMC WITH TCB INVALID      X02113 01950002
         AIF   ('&RET' EQ '' AND '&UCB' EQ '').DEQ100            X02113 02000002
         AIF   ('&RET' EQ '').DEQ110                             X02113 02050002
         AIF   ('&UCB' EQ '').DEQ120                             X02113 02100002
&NAME    ENQ   &PARAM,RET=&RET,UCB=&UCB,TCB=&TCB,GENERIC=&GENERIC,     X02150002
               MF=&MF,RNL=&RNL,LOC=&LOC                            @01C 02200000
         AGO   .DEQ080                                           X02113 02250002
.DEQ100  ANOP                                                    X02113 02300002
&NAME    ENQ   &PARAM,TCB=&TCB,MF=&MF,GENERIC=&GENERIC,RNL=&RNL,       X02333300
               LOC=&LOC                                            @01C 02366600
         AGO   .DEQ080                                           X02113 02400002
.DEQ110 ANOP                                                     X02113 02450002
&NAME    ENQ   &PARAM,UCB=&UCB,TCB=&TCB,MF=&MF,GENERIC=&GENERIC,       X02483300
               RNL=&RNL,LOC=&LOC                                   @01C 02516600
         AGO   .DEQ080                                           X02113 02550002
.DEQ120  ANOP                                                    X02113 02600002
&NAME    ENQ   &PARAM,RET=&RET,TCB=&TCB,MF=&MF,GENERIC=&GENERIC,       X02633300
               RNL=&RNL,LOC=&LOC                                   @01C 02666600
.DEQ080  AIF   (NOT(&IHBDEQ)).DEQ090                               SDS1 02700002
&IHBDEQ  SETB  0                                                   SDS1 02750002
         SVC   48                                                  SDS1 02800002
         AGO   .DEQ090                                           X02113 02850002
.ERR01   IHBERMAC 1020,RMC,TCB         RMC WITH TCB INVALID      X02113 02900002
         AGO   .DEQ090                                           X02113 02950002
.ERR02   IHBERMAC 1020,RMC,GENERIC     RMC WITH GENERIC INVALID  X02113 03000002
.DEQ090  MEND                                                           03050002
**/                                                                     03100002
* DEQ:                                                                  03150002
*/********************************************************************/ 03200002
*/* PL/S VERSION OF DEQ MACRO. DEQ WHEN ISSUED CAUSES RELEASING BY   */ 03250002
*/* MAJOR(QNAME)NAME AND THE DIRECTION OF A DEQUE ON BEHALF OF       */ 03300002
*/* ANOTHER TASK.                                                    */ 03350002
*/********************************************************************/ 03400002
*        MACRO                                                          03450002
*          KEYS(LS,                    /* # OF RESOURCES             */ 03500002
*               MF,                    /*LIST/EXECUTE KEY            */ 03550002
*               GENERIC,                                                03600002
*               RET,                                                    03650002
*               RMC,                                                    03700002
*               RNL,                   /* RNL(YES|NO) KEY        @D1A*/ 03725000
*               TCB,                   /* TCB ADDRESS                */ 03750002
*               UCB,                   /*POINTER TO ADDRESS OF UCB   */ 03800002
*               LOC,                   /* LOC=ANY|BELOW          @01C*/ 03825000
*               RELATED);                                               03850002
*        ANS('?'||MACLABEL||'DEQP '||MACLIST||MACKEYS||';');            03900002
*%END;                                                                  03950002
