*%/*                                                                    00000600
         MACRO                                                          00001200
&NAME    DETACH  &TCB,       ADDRESS OF FULLWORD POINTER TO TCB        X00001800
               &STAE=NO,     SUBTASK STAE EXITS TO RECEIVE CONTROL     X00002400
               &RELATED=     OPTIONAL VALUE FOR DOCUMENTATION           00003000
         AGO   .SKIP                                                    00003600
**** START OF SPECIFICATIONS ****************************************** 00004200
*                                                                       00005200
*01*  MACRO NAME: DETACH                                                00007800
*                                                                       00010400
*01*  COPYRIGHT :                                                       00013000
*                                                                       00015600
*      5685-001                                                         00018200
*      THIS MACRO IS "RESTRICTED MATERIALS OF IBM"                      00020800
*      (C) COPYRIGHT IBM CORP. 1988                                     00023400
*      LICENSED MATERIALS - PROPERTY OF IBM                             00026000
*                                                                       00033800
*01*  STATUS: HBB3310                                                   00036400
*                                                                       00039000
*01*  FUNCTION:                                                         00041600
*        Provide the interface to the DETACH subtask service routine    00044200
*        (IEAVEED0) via SVC 62                                          00046800
*                                                                       00049400
*                                                                       00052000
*01* SYNTAX:                                                            00054600
*        DETACH  TCB,                                                   00057200
*                  <,STAE=yes/no>                                       00059800
*                  <,RELATED=any-comment>                               00062400
*                                                                       00065000
*                                                                       00067600
*        Defaults for keywords:                                         00070200
*             STAE=NO                                                   00072800
*                                                                       00078000
*                                                                       00080600
*                                                                       00083200
*                                                                       00085800
*01*  COMPONENT: SC1CL (Task Management)                                00088400
*                                                                       00091000
*01*  MACLIB: AMACLIB                                                   00093600
*                                                                       00096200
*01*  CHANGE ACTIVITY:                                                  00098800
*   $L1=AR       HBB3310  860115  PD16FH: Access register support       00101400
*   $D1=DCR0049  HBB3310  860615  PD16H4: DETACHX Support               00102700
*   $D2=DCR0304  HBB3310  871128  PD16Q9: Remove DETACHX Support        00103300
*                                                                       00104000
**** END OF SPECIFICATIONS ******************************************/  00106600
*/*                                                                     00111800
.SKIP    ANOP  ,                                                        00116100
.*                                                                      00120400
.********************************************************************** 00124800
.*       ASSEMBLER MACRO DATE COMMENT                                 * 00127400
.********************************************************************** 00130000
*             MACDATE = 11/28/87                                        00132600
.********************************************************************** 00135200
.*       DECLARE MACRO WORK VARIABLES                                 * 00137800
.********************************************************************** 00140400
         GBLC  &SYSASCE              GLOBAL FOR SYSSTATE MACRO     @L1A 00143000
         SYSSTATE TEST               CHECK ASC ENVIRONMENT              00145600
.*                                                                      00145700
.********************************************************************** 00145900
.*       VALIDITY CHECK SPECIFIED PARAMETERS                          * 00146000
.********************************************************************** 00146200
         AIF   ('&TCB' EQ '').E1     TCB ADDRESS REQUIRED          @L1A 00146500
         AIF   ('&STAE' NE 'YES' AND '&STAE' NE 'NO').E2           @L1A 00146800
.********************************************************************** 00147200
.*       GENERATE LABEL IF NAME IS SUPPLIED                           * 00148100
.********************************************************************** 00149000
         AIF   ('&NAME' EQ '').TCBPROC                             @L1A 00149900
&NAME    DS    0H                                                       00150800
.********************************************************************** 00151700
.*       PROCESS ADDRESS OF TCB POINTER                               * 00152600
.********************************************************************** 00153500
.TCBPROC ANOP                                                           00154400
         AIF   ('&TCB' EQ '(1)').STAEPR       ADDRESS IN REG1 ?    @D1C 00155300
         AIF   ('&TCB'(1,1) EQ '(').INREGX    ELSE IN REG X ?      @L1A 00156200
         AGO   .INRX                          ELSE RX TYPE ADDRESS @L1A 00157100
.********************************************************************** 00158600
.*  PROCESS GENERAL CASE WHEN TCB POINTER IS PASSED IN A REGISTER     * 00163300
.********************************************************************** 00168000
.INREGX  ANOP                                                      @D1C 00172700
         LR    1,&TCB(1)             LOAD PARAMETER REGISTER 1          00177400
         AIF   ('&SYSASCE' EQ 'P').STAEPR  If PRIMARY ASC, go process  *00178600
                                     STAE option                   @D2C 00179800
         CPYA  1,&TCB(1)             LOAD ACCESS REGISTER 1             00181000
         AGO   .STAEPR               GO PROCESS STAE OPTION        @L1A 00182200
.********************************************************************** 00187200
.*  PROCESS CASE WHEN TCB POINTER IS PASSED AS RX TYPE ADDRESS        * 00215800
.********************************************************************** 00218400
.INRX    ANOP                                                      @D1C 00226200
         AIF   ('&SYSASCE' EQ 'P').SKPLAE  If PRIMARY ASC, skip        *00227500
                                     loading the access register   @D2A 00228800
         LAE   1,&TCB                LOAD PARAMETER REGISTER 1          00230100
         AGO   .STAEPR                                             @D2A 00231400
.SKPLAE  ANOP                                                      @D2A 00232700
         LA    1,&TCB                LOAD PARAMETER REGISTER 1          00234000
         AGO   .STAEPR                                             @L1A 00236600
.********************************************************************** 00239200
.*  PROCESS STAE OPTION                                               * 00241800
.********************************************************************** 00244400
.STAEPR ANOP                                LOAD REG 1             @L1A 00247000
         AIF   ('&STAE' EQ '' OR '&STAE' EQ 'NO').G1                    00250000
         LA    0,X'80'(0,0)   GET BIT IN REGISTER                       00300000
         SLL   0,24(0)        SHIFT INTO HIGH BIT POSITION              00350000
         OR    1,0            SET HIGH ORDER BIT IN REG 1               00400000
.G1      SVC   62             ISSUE DETACH SVC                          00450000
         MEXIT                                                          00500000
.E1      IHBERMAC 1006,TCB    TCB OPERAND REQUIRED, NOT SPECIFIED  @L1C 00550000
         MEXIT                                                          00560000
.E2      IHBERMAC 1001,STAE,&STAE      INVALID STAE PARAMETER           00570000
         MEND                                                           00600000
**/                                                                     00650000
*DETACH: MACRO                                                          00700000
*        KEYS(STAE,RELATED);                                            00750000
*        ANS('?'||MACLABEL||'DETACHP '||MACLIST||MACKEYS||';');         00800000
*%END;                                                                  00850000
