         MACRO                                                          03000003
&NAME    DSG                                                            06000003
&NAME    DC    XL2'FA00'                DISENGAGE                       09000003
         MEND                                                           12000003
