         MACRO                                                          03000003
&NAME    DSGA                                                           06000003
&NAME    DC    XL2'FB00'                DISENGAGE & SET ATTENTION LIGHT 09000003
         MEND                                                           12000003
