*%/*                                                                    00025000
         MACRO                                                          00050000
&NAME    DSGNL &FUNCTON,&CPU=,&PARAM=                                   00100000
.*                                                                      00150000
.********************************************************************** 00200000
.*                                                                    * 00250000
.* MACRO-NAME = DSGNL                                                 * 00300000
.*                                                                    * 00350000
.* DESCRIPTIVE-NAME = DIRECT SIGNAL                                   * 00400000
.*                                                                    * 00450000
.* COPYRIGHT = 5740-XC6 COPYRIGHT IBM CORP. 1981,                     * 00500000
.*             LICENSED MATERIAL-PROGRAM, PROPERTY OF IBM,            * 00550000
.*             REFER TO COPYRIGHT INSTRUCTIONS FORM NUMBER            * 00600000
.*             G120-2083                                              * 00650000
.*                                                                    * 00700000
.* STATUS = OS/VS2 HBB2102                                            * 00750000
.*                                                                    * 00800000
.* FUNCTION = CALL THE DIRECT SIGNAL SERVICE ROUTINE TO ISSUE         * 00850000
.*            A DIRECT SIGNAL SIGP TO THE SPECIFIED PROCESSOR         * 00900000
.*                                                                    * 00950000
.* CHANGE-ACTIVITY = @G860PXT - HBB2102 SUPPORT                       * 01000000
.*                                                                    * 01050000
.********************************************************************** 01100000
.* A-000000-999999                                             @G860PXT 01150000
.*                                                                      01200000
*        MACDATE = 01/16/81                                             01250000
.*                                                                      01300000
         LCLC  &MESSAGE           IHBERMAC MESSAGE OPERAND              01350000
         LCLC  &ORDER             ORDER CODE                            01400000
.*                                                                      01450000
         AIF   ('&NAME' EQ '').CONT                                     01500000
&NAME    DS    0H                                                       01550000
.CONT    ANOP                                                           01600000
.*                                                                      01650000
.*   THE CPU OPERAND IS REQUIRED.  CHECK IF IT IS SPECIFIED             01700000
.*   AND THAT IS HAS CORRECT SYNTAX.                                    01750000
.*                                                                      01800000
         AIF   ('&CPU' EQ '').NOCPU  IS CPU OPERAND ABSENT?             01850000
         AIF   ('&CPU' EQ '(1)').CHKFUN  CPU OPERAND IN REGISTER 1?     01900000
         AIF   ('&CPU'(1,1) EQ '(').INVCPU CPU OPERAND IN ANOTHER REG?  01950000
.*                                                                      02000000
.*   NOW CHECK THE FUNCTION OPERAND.  IT IS REQUIRED.                   02050000
.*                                                                      02100000
.CHKFUN  ANOP                                                           02150000
         AIF   ('&FUNCTON' EQ '').NOFUN  IS FUNCTION OPERAND ABSENT?    02200000
.*                                                                      02250000
&ORDER   SETC  '01'               SET SENSE ORDER CODE                  02300000
         AIF   ('&FUNCTON' EQ 'SENSE').CHKNPRM                          02350000
.*                                                                      02387900
.*   ORDER CODE X'02' IS THE EXTERNAL CALL CODE, USE THE RPSGNL         02425800
.*       MACRO TO GENERATE THIS ORDER CODE.                             02463700
.*                                                                      02501600
.*   ORDER CODE X'03' IS THE EMERGENCY SIGNAL CODE, USE THE RISGNL      02539500
.*       MACRO TO GENERATE THIS ORDER CODE.                             02577400
.*                                                                      02615300
&ORDER   SETC  '04'               SET START ORDER CODE                  02653200
         AIF   ('&FUNCTON' EQ 'START').CHKNPRM                          02691100
&ORDER   SETC  '05'               SET STOP ORDER CODE                   02729000
         AIF   ('&FUNCTON' EQ 'STOP').CHKNPRM                           02766900
&ORDER   SETC  '06'               SET RESTART ORDER CODE                02804800
         AIF   ('&FUNCTON' EQ 'RESTART').CHKNPRM                        02842700
.*                                                                      02880600
.*   ORDER CODES X'07' AND X'08' ARE UNASSIGNED.                        02918500
.*                                                                      02956400
&ORDER   SETC  '09'               SET STOP & STORE STATUS CODE          02994300
         AIF   ('&FUNCTON' EQ 'SSS').CHKNPRM                            03032200
.*                                                                      03070100
.*   ORDER CODE X'0A' IS UNASSIGNED.                                    03108000
.*                                                                      03145900
&ORDER   SETC  '0B'               SET ICPUR ORDER CODE                  03183800
         AIF   ('&FUNCTON' EQ 'ICPUR').CHKNPRM                          03221700
&ORDER   SETC  '0C'               SET CPUR ORDER CODE                   03259600
         AIF   ('&FUNCTON' EQ 'CPUR').CHKNPRM                           03297500
&ORDER   SETC  '0D'               SET SET PREFIX ORDER CODE             03335400
         AIF   ('&FUNCTON' EQ 'PREFIX').CHKPARM                         03373300
&ORDER   SETC  '0E'               SET STORE STATUS ORDER CODE           03411200
         AIF   ('&FUNCTON' EQ 'STATUS').CHKPARM                         03450000
.*                                                                      03500000
.*   THE FUNCTION ORDER CODE MAY BE PRELOADED INTO REGISTER 0           03550000
.*   BY THE CALLER.  IF SO THE PARAM OPERAND WILL BE VALIDITY           03600000
.*   CHECKED ONLY.  IT IS NOT POSSIBLE TO CHECK IF THE                  03650000
.*   PARAM OPTION IS EXCLUDED OR REQUIRED WITH THIS OPTION.             03700000
.*                                                                      03750000
         AIF   ('&FUNCTON' EQ '(0)').PARMVAL  FUNCTION CODE PRELOADED?  03800000
         AGO   .INVFUN            INVALID FUNCTION PARM, ISSUE MNOTE    03850000
.*                                                                      03900000
.*   THE PARAM OPERAND IS NOT ALLOWED FOR MANY OF THE                   03950000
.*   ORDER CODES.  CHECK HERE THAT IT IS NOT SPECIFIED.                 04000000
.*                                                                      04050000
.CHKNPRM ANOP                                                           04100000
         AIF   ('&PARAM' NE '').PARAMIN  IS PARAM SPECIFIED?            04150000
         AGO   .GENCODE           GO GENERATE LINKAGE CODE              04200000
.*                                                                      04250000
.*   THE PARAM OPERAND IS REQUIRED FOR SEVERAL OF THE ORDER             04300000
.*   CODES.  CHECK THAT IT IS SPECIFIED HERE.                           04350000
.*                                                                      04400000
.CHKPARM ANOP                                                           04450000
         AIF   ('&PARAM' EQ '').PARAMRQ  IS PARAM MISSING?              04500000
.PARMVAL ANOP                                                           04550000
         AIF   ('&PARAM' EQ '').GENCODE  IS PARAM SPECIFIED?            04600000
         AIF   ('&PARAM' EQ '(2)').GENCODE  PARAM IN REGISTER 2?        04650000
         AIF   ('&PARAM'(1,1) EQ '(').PARAMRG  PARAM IN ANOTHER REG?    04700000
.*                                                                      04750000
.GENCODE ANOP                                                           04800000
         AIF   ('&FUNCTON' EQ '(0)').GENCPU  ORDER CODE PRELOADED?      04850000
         LA    0,X'&ORDER'             SET DIRECT SIGP ORDER CODE       04900000
.*                                                                      04950000
.GENCPU  ANOP                                                           05000000
         AIF   ('&CPU' EQ '(1)').GENPARM  CPU PARM PRELOADED?           05050000
         LA    1,&CPU                  GET PCCA ADDRESS                 05100000
.*                                                                      05150000
.GENPARM ANOP                                                           05200000
         AIF   ('&PARAM' EQ '(2)').GENLINK  PARAM PARM PRELOADED?       05250000
         AIF   ('&PARAM' EQ '').GENLINK  PARAM PARM SPECIFIED?          05300000
         L     2,&PARAM                GET PARAMETER VALUE              05350000
.*                                                                      05400000
.GENLINK ANOP                                                           05450000
         L     15,CVTPTR(0,0)          LOCATE CVT ADDRESS               05500000
         L     15,CVTIPCDS-CVT(0,15)   IEAVEDR ENTRY POINT              05550000
         BALR  14,15                   ENTER IEAVEDR AND EST RETURN     05600000
         MEXIT                                                          05650000
.*                                                                      05700000
.NOCPU   ANOP                                                           05750000
.* IHB001 CPU OPERAND REQUIRED, NOT SPECIFIED                           05800000
         IHBERMAC 1006,CPU                                              05850000
         MEXIT                                                          05900000
.*                                                                      05950000
.INVCPU  ANOP                                                           06000000
.* IHB249 INVALID REGISTER ON CPU PARAMETER SPECIFIED                   06050000
&MESSAGE SETC  'REGISTER ON CPU'                                        06100000
         IHBERMAC 1014,&MESSAGE                                         06150000
         MEXIT                                                          06200000
.*                                                                      06250000
.NOFUN   ANOP                                                           06300000
.* IHB004 REQUIRED OPERAND(S) NOT SPECIFIED                             06350000
         IHBERMAC 24                                                    06400000
         MEXIT                                                          06450000
.*                                                                      06500000
.INVFUN  ANOP                                                           06550000
.* IHB002 INVALID FUNCTION OPERAND SPECIFIED-&FUNCTON                   06600000
         IHBERMAC 1001,FUNCTION,&FUNCTON                                06650000
         MEXIT                                                          06700000
.*                                                                      06750000
.PARAMIN ANOP                                                           06800000
.* IHB280 PARAM INVALID WITH &FUNCTON                                   06850000
         IHBERMAC 1020,PARAM,&FUNCTON                                   06900000
         MEXIT                                                          06950000
.*                                                                      07000000
.PARAMRQ ANOP                                                           07050000
.* IHB246 &FUNCTON OPERAND SPECIFIED WITHOUT PARAM OPERAND              07100000
         IHBERMAC 1010,&FUNCTON,PARAM                                   07150000
         MEXIT                                                          07200000
.*                                                                      07250000
.PARAMRG ANOP                                                           07300000
.* IHB249 INVALID REGISTER ON PARAM PARAMETER SPECIFIED                 07350000
&MESSAGE SETC  'REGISTER ON PARAM'                                      07400000
         IHBERMAC 1014,&MESSAGE                                         07450000
         MEXIT                                                          07500000
         MEND                                                           07550000
* */                                                                    07600000
* DSGNL: MACRO KEYS(CPU,PARAM);                                         07650000
* ANS('?'||MACLABEL||'DSGNLP '||MACLIST||MACKEYS||'; ');                07700000
*%END;                                                                  07750000
