         MACRO                                                          01000019
&NAME    DSPLY &DCB,&PARM1,&PARM2                                       02000019
.*                                                                      02050002
.* MODULE-NAME=DSPLY(OS/VS2)MACRO                              @YM00638 02100002
.*                                                                      02110002
.* DESCRIPTIVE-NAME=DISPLAY FIELD & ALLOW KEYBOARD CORRECTION  @YM00638 02150002
.*                                                                      02200002
.* COPYRIGHT=NONE                                              @YM00638 02250002
.*                                                                      02300002
         LCLA  &NOGEN                                                   03000019
         LCLC  &REG1,&REG2                                              04000019
         AIF   (T'&DCB NE 'O').DS002                                    05000019
.DS001   IHBERMAC 202                                                   06000019
&NOGEN   SETA  &NOGEN+1                                                 07000019
         AGO   .DS008                                                   08000019
.DS002   AIF   (T'&NAME EQ 'O').DS003                                   09000019
&NAME    EQU   *                                                        10000019
.DS003   AIF   ('&DCB'(1,1) NE '(').DS007                               11000019
         AIF   ('&DCB'(K'&DCB,1) NE ')').DS001                          12000019
         AIF   (K'&DCB EQ 4).DS004                                      13000019
&REG1    SETC  '&DCB'(2,1)                                              14000019
         AIF   ('&REG1' EQ '1').DS008                                   15000019
         AIF   ('&REG1' GE '2' AND '&REG1' LE '9').DS006                16000019
         AGO   .DS001                                                   17000019
.DS004   AIF   ('&DCB'(2,1) NE '1').DS001                               18000019
         AIF   ('&DCB'(3,1) GE '0' AND '&DCB'(3,1) LE '2').DS005        19000019
         AGO   .DS001                                                   20000019
.DS005   ANOP                                                           21000019
&REG1    SETC  '&DCB'(2,1)                                              22000019
&REG2    SETC  '&DCB'(3,1)                                              23000019
.DS006   LR    1,&REG1&REG2 GET DCB ADDRESS                             24000019
         AGO   .DS008                                                   25000019
.DS007   LA    1,&DCB GET DCB ADDRESS                                   26000019
.DS008   AIF   (T'&PARM1 EQ 'O' AND T'&PARM2 EQ 'O').DS012              27000019
         AIF   (T'&PARM1 EQ 'O').DS009                                  28000019
         AIF   (T'&PARM2 EQ 'O').DS009                                  29000019
         AIF   ('&PARM1'(1,1) NE '(' OR '&PARM1'(K'&PARM1,1) NE ')').DSX30000019
               011                                                      31000019
         AIF   ('&PARM2'(1,1) NE '(' OR '&PARM2'(K'&PARM2,1) NE ')').DSX32000019
               011                                                      33000019
         AIF   (K'&PARM1 EQ 4).DS0081                                   34000019
         AIF   ('&PARM1'(2,1) LE '1' OR '&PARM1'(2,1) GT '9').DS011     35000002
         AGO   .DS0082                                                  36000019
.DS0081  AIF   ('&PARM1'(2,2) LT '10' OR '&PARM1'(2,2) GT '12').DS011   37000019
.DS0082  AIF   (K'&PARM2 EQ 4).DS0083                                   38000019
         AIF   ('&PARM2'(2,1) LE '1' OR '&PARM2'(2,1) GT '9').DS011     39000002
         AGO   .DS0084                                                  40000019
.DS0083  AIF   ('&PARM2'(2,2) LT '10' OR '&PARM2'(2,2) GT '12').DS011   41000019
.DS0084  ANOP                                                           42000019
         AIF   (&NOGEN NE 0).DS010                                      43000019
         L     15,68(1) GET IOB ADDRESS                                 44000019
         MVC   48(16,15),0&PARM1                                        45000019
         MVC       40(8,15),0&PARM2                                     46000019
         AGO   .DS012                                                   47000019
.DS009   IHBERMAC 204                                                   48000019
.DS010   MEXIT                                                          49000019
.DS011   IHBERMAC 203                                                   50000019
         MEXIT                                                          51000019
.DS012   AIF   (&NOGEN EQ 0).DS013                                      52000019
         MEXIT                                                          53000019
.DS013   L     15,8(1) GET ADDRESS OF DSPLY MODULE                      54000019
         BALR  14,15 LINK TO DSPLY MODULE                               55000019
         MEND                                                           56000019
