         MACRO                                                          03000001
&NAME    DWF   &D,&L                    DEFINE DISPLACEMENT & LENGTH    06000001
         GBLC  &DEF3890(250)                                   @ZA00766 06300003
         GBLA  &VAL3890(250),&NS                               @ZA00766 06600003
&NS      SETA  &NS+1                                           @ZA00766 06900003
         AIF   (&NS GT 250).DWF3                               @ZA00766 07200003
&DEF3890(&NS) SETC   '&NAME'                                   @ZA00766 07500003
         AGO   .DWF4                                           @ZA00766 07800003
.DWF3    ANOP                                                  @ZA00766 08100003
         MNOTE  12,'***  IHB424 LIMIT EXCEEDED FOR EQUATED &DL'         08400003
.*                                                             @ZA00766 08450003
.DWF4    AIF   ('&D' LT '16').DWF1                             @ZA00766 09000003
         MNOTE 12,'***  IHB349  DISPLACEMENT NOT 0-15 DIGITS'           12000001
.DWF1    AIF   ('&L' LT '17' AND '&L' NE '0').DWF2                      15000001
         MNOTE 12,'***  IHB350  LENGTH NOT 1-16 DIGITS'                 18000001
.DWF2    ANOP                                                           21000001
&VAL3890(&NS) SETA  16*&D+&L-1                                 @ZA00766 22000003
.END     MEND                                                           27000001
