* /*                                                                 */ 00050000
* /* MACCOMP Y-2 SC1DE/SJD61                                         */ 00100000
* /* MACSTAT Y-2 73103/Y02113                                        */ 00150000
* /*                                                                 */ 00200000
*/*                                                                  */ 00222700
*/* COPYRIGHT =                                                      */ 00245400
*/*                                                                  */ 00268100
*/*PROPRIETARY V3 STATEMENT                                          */ 00290800
*/*LICENSED MATERIALS - PROPERTY OF IBM                              */ 00313500
*/*"RESTRICTED MATERIALS OF IBM"                                     */ 00336200
*/*5695-DF1                                                          */ 00358900
*/*(C) COPYRIGHT 1992  IBM CORP.                                     */ 00381600
*/*END PROPRIETARY V3 STATEMENT                                      */ 00415800
*/*                                                                  */ 00450000
         MACRO                                                          00500000
&NAME    ENDREQ &RPL=                                                   00550000
         AIF   ('&RPL' NE '').OKY                                       00600000
         IHBERMAC 24                                                    00650000
         MEXIT                                                          00700000
.OKY     ANOP                                                           00750000
&NAME    DS    0H                                                       00800000
         AIF   ('&RPL'(1,1) EQ '(').RPLR                                00850000
         LA    1,&RPL                   LOAD RPL ADDR                   00900000
         AGO   .AREG                                                    00950000
.RPLR    AIF   ('&RPL' EQ '(1)').AREG   IF RPL=(1),SKIP LR INSTRUCTION  01000000
         LR    1,&RPL(1)                LOAD RPL ADDR IN REG.1          01050000
.AREG    LA    0,X'04'                  INDICATE ENDREQ IN REG          01100000
         L     15,24(1)                 LOAD ACB ADDR FROM RPL          01150000
         L     15,8(15)                 LOAD AM/0 INTERFACE RTN ADDR    01200000
         BALR  14,15                    BRANCH TO INTERFACE ROUTINE     01250000
         MEND                                                           01300000
