* %/*                                                                   00050000
         MACRO                                                          00100000
&NAME    ENFREQ &ACTION=,&CODE=,&TYPE=,&QUAL=,&QMASK=,                 *00150000
               &EXIT=,&PARM=,&DTOKEN=,&STOKEN=,&FREEPRM=,&MF=,         *00200000
               &ESTBNME=,&EXITNME=,&RELATED=,&LISTENRS=,&DISABLE=,     *00233300
               &SRBEXIT=,&EOT=,&EOM=,&SPXITRET,&XSYS=,&PARMLEN=,       *00262400
               &BITQUAL=,&BITCOMPARE=,&PLISTVER=,&MASEXIT=         @PFC 00291500
.**** START OF SPECIFICATIONS ***************************************** 00320600
.*                                                                    * 00350000
.* MACRO  NAME - ENFREQ                                               * 00400000
.*                                                                    * 00450000
.* DESCRIPTION - MACRO FOR EVENT NOTIFICATION (ENF) REQUESTS          * 00500000
.*                                                                    * 00550000
.**01* PROPRIETARY STATEMENT=                                         * 00594400
.* **PROPRIETARY_STATEMENT********************************************* 00638800
.*                                                                    * 00683200
.*                                                                    * 00727600
.*  LICENSED MATERIALS - PROPERTY OF IBM                              * 00772000
.*  THIS MACRO IS "RESTRICTED MATERIALS OF IBM"                       * 00816400
.*  5647-A01 (C) COPYRIGHT IBM CORP. 1981, 2000                   @PFC* 00866400
.*                                                                    * 00950000
.*  STATUS= HBB7703                                               @PFC* 00975000
.*                                                                    * 01000000
.* **END_OF_PROPRIETARY_STATEMENT************************************** 01025000
.*                                                                    * 01050000
.* FUNCTION -                                                         * 01100000
.*      THE ENFREQ MACRO IS USED TO GENERATE THE EVENT                * 01150000
.*      PARAMETER LIST AND/OR INVOKE THE ENF SERVICE ROUTINE.         * 01200000
.*                                                                    * 01212500
.*01* EXTERNAL CLASSIFICATION:                                    @PBC* 01215200
.*02* GUPI: BASE                                                  @PBA* 01217900
.*02* NONE: FIELDS                                                @PBA* 01220600
.*          ACTION=SIGNAL                                         @PBA* 01223300
.*          ACTION=QUERY                                          @PBA* 01226000
.*          DISABLE                                               @PBA* 01228700
.*          SPXITRET                                              @PBA* 01231400
.*          TYPE                                                  @PBA* 01234100
.*01* END OF EXTERNAL CLASSIFICATION:                             @L6A* 01237500
.*                                                                    * 01250000
.* OPERATION -                                                        * 01300000
.*      . VERIFY THE INPUT PARAMETERS SPECIFIED BY THE USER           * 01350000
.*                                                                    * 01400000
.*      . BUILD THE EVENT PARAMETER LIST (LIST AND NORMAL             * 01450000
.*        FORM)                                                       * 01500000
.*                                                                    * 01550000
.*      . GENERATE INSTRUCTIONS TO MODIFY THE EVENT PARAMETER         * 01600000
.*        LIST (NORMAL AND EXECUTE FORM)                              * 01650000
.*                                                                    * 01700000
.*      . GENERATE INSTRUCTION TO INVOKE THE ENF SERVICE              * 01750000
.*        ROUTINE (NORMAL AND EXECUTE FORM)                           * 01800000
.*                                                                    * 01850000
.* NOTES - N/A                                                        * 01900000
.*                                                                    * 01950000
.* DEPENDENCIES -                                                     * 02000000
.*       TO USE THE ENFREQ MACRO INSTRUCTION, THE CALLER MUST         * 02050000
.*            1. DECLARE STORAGE FOR A 4 BYTE POINTER ENFPTR          * 02100000
.*            2. DEFINE CVTPTR (EQUAL TO LOCATION 16)                 * 02150000
.*            3. INCLUDE THE CVT, IEFENFCT, AND IEFENFPM              * 02200000
.*               MAPPING MACROS                                       * 02250000
.*                                                                    * 02300000
.* MODULE TYPE - MACRO                                                * 02350000
.*                                                                    * 02400000
.* ENTRY POINT - N/A                                                  * 02450000
.*                                                                    * 02500000
.* INPUT - THE FOLLOWING MAY BE SPECIFIED AS PARAMETERS TO ENFREQ     * 02550000
.*                                                                    * 03650000
.*        . &ACTION - Action requested for ENF processing             * 03658400
.*                    (Valid types : SIGNAL, LISTEN, DELETE,      @D2C* 03666800
.*                    and QUERY)                                  @D2A* 03675200
.*                                                                    * 03683800
.*        . &BITCOMPARE - Comparison operator that determines how @L6A* 03690400
.*                     ENF is to interpret the bit-mapped         @L6A* 03697000
.*                     qualifier specified with the BITQUAL       @L6A* 03697600
.*                     parameter.                                 @L6A* 03698200
.*                     SUBSET => All '1's in listener's bit-      @L6A* 03698300
.*                       mapped qualifier must also be '1's in    @L6A* 03698400
.*                       signaller's bit-mapped qualifier         @L6A* 03698500
.*                     INTERSECT => At least 1 '1' in listener's  @L6A* 03698600
.*                       bit-mapped qualifier must be a '1' in    @L6A* 03698700
.*                       signaller's bit-mapped qualifier         @L6A* 03698800
.*                     EQUAL => Listener's and signaller's        @L6A* 03698900
.*                       bit-mapped qualifiers must match exactly @L6A* 03699000
.*                                                                    * 03699100
.*        . &BITQUAL - Bit-mapped qualifier that may be used to   @L6A* 03699200
.*                     more specifically identify the event of    @L6A* 03699300
.*                     interest.  The meaning of the bit-mapped   @L6A* 03699400
.*                     qualifier depends on the event code being  @L6A* 03699500
.*                     signalled.                                 @L6A* 03699600
.*                                                                    * 03699700
.*        . &CODE - The event code                                    * 03699800
.*                                                                    * 03699900
.*        . &DISABLE - Determines if ENF should disable the       @L4A* 03700000
.*                     listen exit if an error occurs while the   @L4A* 03700100
.*                     listen exit has control (valid             @L4A* 03700200
.*                     types: YES, NO)                            @L4A* 03700300
.*                                                                    * 03700400
.*        . &DTOKEN - Token for LISTEN and DELETE request             * 03700500
.*                                                                    * 03700600
.*        . &EOM - Request to delete LISTEN request when address  @L5A* 03700700
.*                 space terminates.  YES or NO are only valid    @L5A* 03700800
.*                 choices.                                       @L5A* 03700900
.*                                                                    * 03701000
.*        . &EOT - Request to delete LISTEN request when task     @L5A* 03701100
.*                 terminates. YES or NO are only valid choices.  @L5A* 03701200
.*                                                                    * 03701300
.*        . &ESTBNME - Name of module establishing LISTEN exit    @D1A* 03701400
.*                     this keyword is optional but required if   @D1A* 03701500
.*                     EXITNME is specified.                      @D1A* 03701600
.*                                                                    * 03701700
.*        . &EXIT - Address of signaller's or listener's              * 03701800
.*                  exit routine                                      * 03701900
.*                                                                    * 03702000
.*        . &EXITNME - Name of LISTEN exit routine                @D1A* 03702100
.*                     this keyword is optional but required if   @D1A* 03702200
.*                     ESTBNME is specified.                      @D1A* 03702300
.*                                                                    * 03702400
.*        . &FREEPRM - FREEMAIN parameters used to free the           * 03702500
.*                     signaller's parameter list                     * 03702600
.*                     Format: FREEPRM=(subpool,length,key)       @L6A* 03702700
.*                                                                    * 03702800
.*        . &LISTENRS- Used by the caller to specify the name of  @L3A* 03702900
.*                     a variable into which ENF will return the  @L3A* 03703000
.*                     number of listeners for &CODE event.  This @L3A* 03703100
.*                     keyword is only allowed when &TYPE=SYNC.   @L3A* 03703200
.*                     The returned value includes the count of   @L3A* 03703300
.*                     listeners for an event that match the      @L3A* 03703400
.*                     &QMASK and &QUAL.                          @L3A* 03703500
.*                     This keyword is allowed only for           @D2A* 03703600
.*                     ACTION = QUERY.                            @D2A* 03703700
.*                                                                    * 03703800
.*        . &MASEXIT - Request that multiple address spaces are   @PFA* 03703900
.*                     allowed to use the same listen exit.  YES  @PFA* 03704000
.*                     or NO are the only valid choices.          @PFA* 03704100
.*                                                                    * 03704200
.*        . &PARM -  Address of signaller's parameter list            * 03704300
.*                                                                    * 03704400
.*        . &PARMLEN - The length of the signaller's parameter    @L6A* 03704500
.*                     list, for sysplex-wide notification.       @L6A* 03704600
.*                     Either FREEPRM or PARMLEN is required for  @L6A* 03704700
.*                     cross-system signal requests if PARM is    @L6A* 03704800
.*                     specified, to define the length of the     @L6A* 03704900
.*                     parameters to be sent across the sysplex.  @L6A* 03705000
.*                                                                    * 03705100
.*        . &PLISTVER - Specifies the version of the parameter    @PAA* 03705200
.*                     list. Accepted values are 2,3,MAX.         @PAA* 03705300
.*                     The default is the highest level needed    @PAA* 03707800
.*                     by any of the parameters specified on the  @PAA* 03710700
.*                     macro invocation.  Specify MAX to get the  @PAA* 03713600
.*                     longest parameter list supported.  This    @PAA* 03716500
.*                     is especially applicable for MF=L to       @PAA* 03719400
.*                     ensure that the list form used is at       @PAA* 03722300
.*                     least as long as the execute form.         @PAA* 03725200
.*                                                                    * 03728100
.*                     The following parameters require version   @PAA* 03731000
.*                     3 or MAX:                                  @PAA* 03733900
.*                                                                    * 03736800
.*                       BITQUAL, BITCOMPARE, XSYS, PARMLEN       @PAA* 03739700
.*                       MASEXIT                                  @PFA* 03739800
.*                                                                    * 03739900
.*        . &QMASK - Mask to determine which bytes in the             * 03740000
.*                   qualifier are to be used in comparing            * 03740100
.*                   qualifiers during SIGNAL processing.             * 03740200
.*                                                                    * 03740300
.*        . &QUAL - Qualifier (the meaning of the qualifier is        * 03740400
.*                  determined by the signallers/listeners of         * 03740500
.*                  a given event)                                    * 03740600
.*                                                                    * 03740700
.*        . &RELATED - Used by the caller to specify                  * 03740800
.*                     information used to self-document the          * 03740900
.*                     various ENFREQ requests                        * 03741000
.*                                                                    * 03741100
.*        . &SPXITRET- This area is not used by the caller.  It   @P5A* 03741200
.*                     was added so that the caller's parameter   @P5A* 03741300
.*                     list will remain consistent with ENF's     @P5A* 03741400
.*                     local copy of the parameter list.          @P5A* 03741500
.*                                                                    * 03741600
.*        . &SRBEXIT - Address of listener's exit routine that        * 03741700
.*                  will run as an SRB.                           @L5A* 03741800
.*                                                                    * 03741900
.*        . &STOKEN - Token for SIGNAL request                        * 03742000
.*                                                                    * 03742100
.*        . &TYPE - Requested ENF to process the request              * 03742200
.*                  synchronously(SYNC) or asynchronously(ASYNC)      * 03742300
.*                                                                    * 03742400
.*        . &XSYS    - For signal requests: YES => listeners on   @L6A* 03742500
.*                     other systems in the sysplex are to be     @L6A* 03742600
.*                     notified, NO => only listeners on the      @L6A* 03742700
.*                     local system are to be notified.           @L6A* 03742800
.*                     For listen requests: YES => listener will  @L6A* 03742900
.*                     accept notifications originating on other  @L6A* 03743000
.*                     systems in the sysplex, NO => listener     @L6A* 03743100
.*                     will accept only notifications from the    @L6A* 03743200
.*                     local system.                              @L6A* 03743300
.*                                                                    * 03743400
.* OUTPUT - THE OUTPUT FROM THE ENFREQ MACRO IS AN EVENT              * 03745500
.*          PARAMETER LIST (FOR LIST AND NORMAL FORM) AND/OR          * 03750000
.*          INSTRUCTIONS TO MODIFY THE EVENT PARAMETER LIST           * 03800000
.*          AND INVOKE THE ENF SERVICE ROUTINE (IEFENFFX).            * 03850000
.*                                                                    * 03900000
.* EXIT,NORMAL                                                        * 03950000
.*   CONDITION - NO ERRORS DETECTED                                   * 04000000
.*   OUTPUT    - NO MNOTE ISSUED. SEVERITY CODE = 0.                  * 04050000
.*                                                                    * 04100000
.* EXIT,NORMAL                                                        * 04150000
.*   CONDITION - ERROR CONDITION DETECTED BY THE ENFREQ MACRO         * 04200000
.*   OUTPUT    - INFORMATION MNOTES WITH SEVERITY CODE 4              * 04250000
.*               ISSUED WHEN PARAMETER SPECIFIED IS                   * 04300000
.*               INCORRECT. THE SPECIFIED PARAMETER IS IGNORED        * 04350000
.*               AND THE DEFAULT VALUE FOR THAT PARAMETER             * 04400000
.*               IS ASSUMED.                                          * 04450000
.*                                                                    * 04500000
.* EXIT, ERROR                                                        * 04550000
.*   CONDITION - ERROR CONDITION DETECTED BY THE ENFREQ MACRO         * 04600000
.*   OUTPUT    - ERROR MNOTES WITH SEVERITY CODE 8 (SEE               * 04650000
.*               MESSAGES) ISSUED WHEN CERTAIN REQUIRED               * 04700000
.*               PARAMETER IS MISSING OR INCORRECTLY SPECIFIED.       * 04750000
.*               THE MACRO WILL ATTEMPT TO SCAN FOR ADDITIONAL        * 04800000
.*               ERRORS.                                              * 04850000
.*                                                                    * 04900000
.* EXIT, ERROR                                                        * 04950000
.*   CONDITION - SEVERE ERROR DETECTED BY THE ENFREQ MACRO            * 05000000
.*   OUTPUT    - ERROR MNOTES WITH SEVERITY CODE 12 (SEE              * 05050000
.*               MESSAGES) ISSUED WHEN CERTAIN REQUIRED               * 05100000
.*               PARAMETER IS MISSING OR INCORRECTLY SPECIFIED.       * 05150000
.*               THE MACRO EXPANSION WILL BE TERMINATED AS            * 05200000
.*               A RESULT OF THE ERROR.                               * 05250000
.*                                                                    * 05300000
.*                                                                    * 05350000
.* EXTERNAL REFERENCES - N/A                                          * 05400000
.*                                                                    * 05450000
.* TABLES - N/A                                                       * 05500000
.*                                                                    * 05550000
.* MACROS - CVT                                                       * 05600000
.*          IEFENFCT                                                  * 05650000
.*          IEFENFPM                                                  * 05700000
.*                                                                    * 05750000
.* MESSAGES - (MNOTES)                                                * 05750400
.*   - INFORMATIONAL MNOTES :                                         * 05750800
.*       MNOTE   04,'keyword NOT ALLOWED FOR action REQUEST - IGNORED'* 05751200
.*       MNOTE   04,'keyword NOT VALID WITH SRBEXIT'              @PFC* 05751600
.*       MNOTE   04,'EOM=NO EOT=YES IS NOT A VALID COMBINATION'   @P8C* 05752000
.*       MNOTE   04,'DTOKEN NOT ALLOWED IN LIST FORM - IGNORED'       * 05752400
.*       MNOTE   04,'LISTENRS NOT ALLOWED FOR LIST FORM - IGNORED'    * 05752800
.*                                                                @L3A* 05753200
.*       MNOTE   04,'LISTENRS NOT ALLOWED FOR TYPE=ASYNC - IGNORED    * 05753600
.*                                                                @L3A* 05754000
.*                                                                    * 05754800
.*   - ERROR MNOTES :                                                 * 05755200
.*       MNOTE   08,'BOTH ESTBNME AND EXITNME MUST BE SPECIFIED'  @D1A* 05755600
.*       MNOTE   08,'DTOKEN REQUIRED FOR DELETE REQUEST'              * 05756000
.*       MNOTE   08,'ACTION REQUIRED WITH DTOKEN - DTOKEN IGNORED'    * 05756400
.*                                                                @P2A* 05756800
.*       MNOTE   08,'INVALID EOT : EOT=eot'                       @L5A* 05757200
.*       MNOTE   08,'INVALID EOM : EOM=eom'                       @L5A* 05757600
.*       MNOTE   08,'keyword1 NOT ALLOWED WITH keyword2           @L6C* 05758000
.*       MNOTE   08,'EXIT OR SRBEXIT REQUIRED FOR LISTEN REQUEST' @L5A* 05758400
.*       MNOTE   08,'INVALID TYPE : TYPE=&TYPE IGNORED'               * 05758800
.*       MNOTE   08,'INVALID QMASK VALUE : &QMASK(&I) IGNORED'        * 05759200
.*       MNOTE   08,'DUPLICATE QMASK VALUE : &QMASK(&I)'              * 05759600
.*       MNOTE   08,'EXTRANEOUS QMASK INFO - QMASK=(ALL) ASSUMED'     * 05760000
.*       MNOTE   08,'EXTRANEOUS QMASK INFO - QMASK=(NONE) ASSUMED'    * 05760400
.*       MNOTE   08,'CODE PARAMETER REQUIRED'                         * 05760800
.*       MNOTE   08,'LENGTH REQUIRED IN FREEPRM - FREEPRM IGNORED'    * 05761200
.*       MNOTE   08,'SUBPOOL REQUIRED IN FREEPRM - FREEPRM IGNORED'   * 05761600
.*       MNOTE   08,'SUBPOOL AND LENGTH REQUIRED - FREEPRM IGNORED'   * 05762000
.*       MNOTE   08,'INVALID FREEPRM KEY VALUE - FREEPRM IGNORED'     * 05762400
.*       MNOTE   08,'keyword IN REGISTER NOT ALLOWED FOR LIST FORM'   * 05762800
.*       MNOTE   08,'keyword NOT ALLOWED FOR LIST FORM'           @L6C* 05763200
.*       MNOTE   08,'INVALID DISABLE : DISABLE=&DISABLE IGNORED'      * 05763600
.*       MNOTE   08,'ESTBNME AND EXITNME REQUIRED WITH DISABLE'   @L4A* 05764000
.*       MNOTE   08,'INVALID keyword: keyword=&KEYWORD'           @L6A* 05764400
.*       MNOTE   08,'MORE THAN x keyword VALUE(S) - keyword IGNORED'  * 05764800
.*       MNOTE   08,'FREEPRM OR PARMLEN REQUIRED FOR SIGNAL WHEN  @L6A* 05765200
.*                  XSYS=YES AND PARM SPECIFIED'                  @L6A* 05765600
.*       MNOTE   08,'XSYS=YES REQUIRED WITH PARMLEN'              @L6A* 05766000
.*       MNOTE   08,'BITQUAL MUST BE A HEX NUMERIC VALUE'         @L6A* 05766400
.*       MNOTE   08,'keyword1 REQUIRED WITH keyword2'             @PCC* 05766600
.*                                                                    * 05766800
.*   - Terminating MNOTES:                                            * 05767200
.*       MNOTE   12,'INVALID ACTION : ACTION=&ACTION-MACRO TERMINATED'* 05767600
.*       MNOTE   12,'INVALID MF PARAMETER : MF=&MF - MACRO TERMINATED'* 05768000
.*       MNOTE   12,'ACTION REQUIRED - MACRO TERMINATED'              * 05768400
.*       MNOTE   12,'ERROR IN ENFREQ MACRO - MACRO TERMINATED'        * 05768800
.*       MNOTE   12,'PLISTVER MUST BE 2, 3, OR MAX'               @PAA* 05768900
.*       MNOTE   12,'PLISTVER=&PLISTVER BUT PLISTVER OF &VERS IS      * 05769000
.*                   REQUIRED'                                    @PAA* 05769100
.*                                                                    * 05769200
.*                                                                    * 05769600
.* CHANGE ACTIVITY - D0,P1,P2,P3,L1,D1,P4,L3,D2,P5,L4,P6,L5,P7,P8,    * 05772200
.*                   P9                                           @P9C* 05794400
.* The above section of the change activity is no longer updated. @L6A* 05805500
.*                                                                    * 05816600
.*   $D0= DCR#1   JBB1326  800604  PD42: IMPLICIT FLAG - NEW CODE     * 05850000
.*   $P1= PMM0114 JBB1326  800604  PD42: ADD KEYWORD RETCODE FOR      * 05900000
.*                                         ENFREQP                    * 05950000
.*   $P2= PMM0135 JBB1326  800604  PD42: CHECK FOR ACTION PARAMETER   * 06000000
.*                                         IF DTOKEN IS SPECIFIED IN  * 06050000
.*                                         EXECUTE FORM               * 06100000
.*   $P3= PMM0335 JBB1326  810420  PD42: CORRECT CHANGE ACTIVITY      * 06150000
.*                                         LINE FLAGS AND COPYRIGHT   * 06200000
.*   $L1= COEXWTO2 JBB2220 840813  PDD7: SUPPORT FOR JES3/MCS     @L1A* 06250000
.*                                       COEXISTENCE              @L1A* 06300000
.*   $D1= DCR1019  HBB3310 870918  PDT3: SERVICEABILITY           @D1A* 06325000
.*   $P4= PC41800  HBB3310 871130  PDT3: CORRECT ADDRESSABILITY   @P4A* 06337500
.*   $L3= CNITG    HBB4410 881229  PDT4: LISTENER COUNT           @L3A* 06343700
.*   $D2= DCR0227  HBB4410 891016  PDIB: QUERY FOR INFORMATION    @D2A* 06346800
.*   $P5= PEO3561  HBB4410 900209  PDIB: SPECIAL EXIT RETURN CODE @P5A* 06348400
.*   $L4= ENFEXT   HBB4430 911204  PDIB: DISABLE KEYWORD          @L4A* 06349200
.*   $P6= PKB2552  HBB4430 920617  PDIB: CHANGE DISTLIB           @P6A* 06349600
.*   $L5= ENFEN    HBB5510 921203  PDIB: ENF Enhancements         @L5A* 06349700
.*   $P7= PIG4001  HBB5510 921203  PDIB: ENF Enhancements         @P7A* 06349800
.*   $P8= PIG4000  HBB5510 921203  PDIB: ENF Enhancements         @P8A* 06349900
.*   $P9= PIG4029  HBB5510 930520  PDIB: ENF Enhancements         @P9A* 06366600
.*   $01= OW14561  HBB5520 950804  PDLS: ENF Keywords ESTBNME and @01A* 06368600
.*                                       EXITNME Corrections      @01A* 06370600
.*   $02= OW14325  HBB5510 950829  PDLS: Fix for CVT - PREFIX=YES @02A* 06372600
.*   $L6= GRS32    JBB6602 950921  PDBN: Sysplex-wide ENF         @L6A* 06374900
.*   $PA= PSD0835  JBB6602 960404  PDXB: Sysplex-wide ENF         @PAA* 06377700
.*   $PB= PSD0834  JBB6602 960404  PDBN: External classification  @PBA* 06380500
.*   $PC= PSD0495  JBB6602 960404  PDBN: MNOTE severity           @PCA* 06381900
.*   $PD= PSD0516  JBB6602 960404  PDBN: DISABLE flags            @PDA* 06382600
.*   $PE= PSD0584  JBB6602 960404  PDBN: PARMLEN=equated value    @PEA* 06382900
.*   $PF= PXD0510  HBB7703 991018  PDOH: FIN APAR OW39364         @PFA* 06383100
.*                                                                    * 06383300
.**** END OF SPECIFICATIONS ******************************************* 06433300
.* A 000000-999999                                                @D0A* 08600000
.* C LOCATION OF ENFRQ IS CHANGED TO SYS1.MACLIB FROM                 * 08650000
.*   SYS1.PVTMACS.                                                @L1A* 08700000
.* A ADDED ESTBNME AND EXITNME TO IDENTIFY WHO ESTABLISHED            * 08716600
.*   THE LISTEN EXIT AND THE NAME OF THE LISTEN EXIT.             @D1A* 08733200
.* A ADDED LISTENRS PARAMETER                                     @L3A* 08741600
.* A ADDED ACTION QUERY FOR INFORMATION                           @D2A* 08745800
.* A ADDED SPXITRET SPECIAL EXIT RETURN CODE                      @P5A* 08747900
.* A DISABLE KEYWORD                                              @L4A* 08748900
.* C CHANGE DISTLIB TO AMACLIB.                                   @P6A* 08749400
.* A Added SRBEXIT, EOT, EOM and allowed PARM on listen.          @L5A* 08749500
.* C Corrected assembler instructions generated for EOT=YES/          * 08749600
.*   EOM=NO and EOM=NO/SRBEXIT= error conditions                  @P7A* 08749700
.* C Corrected MNOTE for EOT=YES EOM=NO error condition           @P8A* 08749800
.* C Don't set EOT or EOM defaults on execute form of macro.      @P9A* 08749900
.* A Added register specified support for EXITNME and ESTBNME,    @01A* 08755400
.* C Corrected code to allow CVT with PREFIX=YES specified.       @02A* 08760900
.* C Defined XSYS, PARMLEN, BITQUAL, and BITCOMPARE keywords.     @L6A* 08766600
.* C Defined PLISTVER keyword to control size of generated            * 08769900
.*   parameter list for compatibility purposes.                   @PAA* 08773200
.* C Changed external classification to identify parameters that      * 08776500
.*   are not part of the intended interface.                      @PBA* 08779800
.* C Changed "keyword1 REQUIRED WITH keyword" MNOTEs from             * 08780900
.*   severity 4 to severity 8.                                    @PCA* 08782000
.* C Don't set flags ENFPDISA and ENFPDISO unless DISABLE             * 08782400
.*   explicitly specified.                                        @PDA* 08782800
.* C Don't try to permit equated value for PARMLEN, since it is       * 08782900
.*   not possible to recognize values defined as EQU x,len,C'F'.  @PEA* 08783000
.* A Defined MASEXIT keyword.  Used to allow multiple address         * 08783100
.*   spaces to use the same listen exit.                          @PFA* 08783200
.*-------------------------------------------------------------------*  08783300
.*   DECLARATIONS FOR TEMPORARY VALUES FOR EVENT PARAMETER LIST      *  08800000
.*-------------------------------------------------------------------*  08850000
         LCLA    &LEN,&ACT             WORD 1 : LENGTH,ACTION           08900000
         LCLC    &CDE                  WORD 2 : CODE                    08950000
         LCLC    &MSK                  WORD 3 : QMASK                   09000000
         LCLA    &FLG                  WORD 3 : FLAGS                   09050000
         LCLC    &FREEKEY              WORD 3 : KEY FOR FREEPRM         09100000
         LCLC    &FREESP               WORD 3 : SUBPOOL FOR FREEPRM     09150000
         LCLC    &QUALIF               WORD 4 : QUALIFIER               09200000
         LCLC    &EXTADR               WORD 5 : EXIT ADDRESS            09250000
         LCLC    &PARMS                WORD 6 : SIGNAL or LISTEN parms  09300000
         LCLC    &TOK                  WORD 7 : TOKEN                   09350000
         LCLC    &FREELEN              WORD 8 : LENGTH FOR FREEPRM      09400000
         LCLA    &VERS,&RESV           WORD 9 : VERSION, RESERVED  @D1A 09406200