*/*01* PROPRIETARY STATEMENT=                                        */ 00003300
*/***PROPRIETARY_STATEMENT********************************************/ 00006600
*/*                                                                  */ 00009900
*/*                                                                  */ 00013200
*/* LICENSED MATERIALS - PROPERTY OF IBM                             */ 00016500
*/* THIS MACRO IS "RESTRICTED MATERIALS OF IBM"                      */ 00019800
*/* 5645-001 (C) COPYRIGHT IBM CORP. 1977, 1997                      */ 00023100
*/*                                                                  */ 00026400
*/* STATUS= HBB6603                                                  */ 00029700
*/*                                                                  */ 00033000
*/***END_OF_PROPRIETARY_STATEMENT*************************************/ 00036300
*%/*                                                               @P1A 00040000
         MACRO                                                          00080000
&NAME    ENQ   &P,&SMC=,&RET=,&UCB=,&ECB=,&TCB=,&GENERIC=NO,&MF=I,     X00100002
               &RNL=,&MASID=,&MTCB=,&RELATED=,&LOC=                @03C 00104000
.********************************************************************** 00108000
.*                                                                      00112000
.*01* MACRO-NAME = ENQ                                                  00113000
.*                                                                      00114000
.*01*  MACRO-DATE = 05/05/95                                       @03C 00114300
.*                                                                      00114600
.*01* DESCRIPTIVE-NAME = ENQ MACRO                                      00115000
.*                                                                      00121200
.*01* EXTERNAL CLASSIFICATION: GUPI                                     00121400
.*01* END OF EXTERNAL CLASSIFICATION:                                   00121600
.*                                                                      00122000
.*01* FUNCTION =                                                        00123000
.*                GENERATE ENQ SVC (SVC 56).  ALSO, GENERATE AND/OR     00124000
.*                MODIFY THE PARAMETER-LIST OF ENQ, RESERVE, OR DEQ.    00125000
.*                                                                      00126000
.*                                                                      00127000
.*01* MODULE-TYPE = MACRO                                               00128000
.*                                                                      00129000
.*01* PROCESSOR = ASSEMBLER                                             00130000
.*                                                                      00131000
.*01* MACROS = IHBERMAC, IHBINNRA, ENQP                                 00132000
.*                                                                      00133000
.*01* CHANGE-ACTIVITY =                                                 00134000
.*                                                                      00136200
.*  $L1=MASIDENQ JBB2125 830411 PD1L: Add MASID and MTCB operands.      00136300
.*                                    Modify generation of PEL prefix.  00136400
.*                                                                 @L1A 00136500
.*  $D1=DEO0156 HBB4410 890515 PDDX: Add support for RNL keyword        00136600
.*                                   DCR - 156                     @D1A 00136700
.*  $P1=PAJ0021 JBB2125 830411 PD1L: Fix Prolog for invocation as a     00136800
.*                                   PLS macro.                    @P1A 00136900
.*  $P2=PAJ0054 JBB2125 830411 PD1L: Store MASID/MTCB if MF=E macro     00137000
.*                                   with ECB=.                    @P2A 00137100
.*  $P3=PAJ0083 JBB2125 830527 PD1L: Store correct PELRET if MASID=     00137200
.*                                   with ECB=.                    @P3A 00137300
.*  $P4=PEO1730 HBB4410 890515 PDDX: Correct macro date and copyright.  00137400
.*                                                                 @P4A 00137500
.*  $P5=PEO2208 HBB4410 890626 PDDX: Fix RNL code to allow obscure      00137600
.*                                   types of the EXECUTE form.    @P5A 00137700
.*  $P6=PEO2299 HBB4410 890814 PDAW: Add continuation character.   @P6A 00137800
.*  $P7=PEO2246 HBB4410 891023 PDDX: Add a warning message when DEQ     00137900
.*                                   with UCB has a Scope other than    00138000
.*                                   SYSTEMS.                      @P7A 00138100
.*  $P8=PEO3322 HBB4410 900105 PDDX: Allow Scope to be omitted for a    00138200
.*                                   request with UCB.  Assume a Scope  00138300
.*                                   of SYSTEMS.                  @P8A  00138400
.*  $L2=UCBVP   HBB5510 940210 PDAW: Add DEVN keyword.             @L2A 00138500
.*  $P9=PN70247 HBB5520 940310 PDAW: Correct MACDATE.              @P9A 00138600
.*  $PA=PN70590 HBB5520 940602 PDAW: Add DEVN to RESERVE check.    @PAA 00138700
.*  $PB=PN71744 HBB5520 941022 PDAW: Add external class.           @PBA 00138800
.*                                                                      00139300
.* MACSTAT Y-3                                                 @ZA00466 00139400
.* MACSTAT Y-3                                                 @ZA14267 00139500
.* MACSTAT Y-3                                                 @ZA24620 00140000
.* MACSTAT Y-3 77.277/OZ26012                                  @ZA26012 00141000
.* MACSTAT Y-3 77.277/OZ26497                                  @ZA26497 00142000
.* MACSTAT Y-3 79.066/OZ37604 FIX DEQ EXECUTE WITH UCB         @ZA37604 00143000
.* MACSTAT Y-3 81.293/OZ53727 UPDATE PARAMETER BYTE WITH PARAMETERS     00144000
.*                           SPECIFIED IN EACH ELEMENT ON MULTIPLE      00145000
.*                           ENQUEUE.                          @ZA53727 00146000
.* OY12665 THE SETA STATEMENT USED IN CONJUNCTION WITH THE LENGTH       00146100
.*         ATTRIBUTE REQUIRES THAT THE DEFINED CONSTANT FOR THE RNAME   00146200
.*         BE DECLARED IN OPEN CODE.  THE SETA STATEMENT HAS BEEN       00146300
.*         CHANGED TO A DC TO ALLOW THE RNAME TO BE DECLARED OUTSIDE    00146400
.*         OF THE PROGRAM (FOR EXAMPLE WITHIN A MACROLIBRARY). @YA12665 00146500
.* OY18966 DETERMINE THE TYPE ATTRIBUTE OF THE RNAME ADDRESS TO         00146600
.*         DECIDE IF A DC OR SETA INSTRUCTION IS NEEDED TO RESOLVE      00146700
.*         THE RNAME LENGTH.                                   @YA18966 00146800
.* $01=OY56643 HBB4430 920821 PDEL: Restore &TYPER symbol.         @01A 00146900
.* $02=OY59863 HBB4430 930104 PDAW: Add better error checking for       00147000
.*                                  MASID and MTCB.                @02A 00147100
.* $03=OW11070 HBB4420 950505 PDHB: Remove/add support for DEVN/LOC     00147200
.*                                  keywords, respectively, for         00147300
.*                                  RESERVE and DEQ.  DCR 105.     @03A 00147400
.* $PC=PSD0270 JBB6602 950707 PDHB: MNOTE an ENQ with a UCB specified   00147500
.*                                  instead of letting it go unnoticed  00147600
.*                                  during macro expansion because it   00147700
.*                                  could later fail with an ABEND438.  00147800
.*                                  FIN of APAR OW13339.           @PCA 00147900
.*                                                                      00148000
.********************************************************************** 00149300
.*                                                                      00150000
.********************************************************************** 00153000
.*                                                                      00156000
.*  &B is used to control the bits within PELFLAG:                      00159000
.*                                                                      00162000
.*     &B(1) and &B(4) control PELSCPE1 and PELSCPE2 for SCOPE and      00165000
.*                     and UCB operands.                                00168000
.*                                                                      00171000
.*     &B(2) controls PELSYSMC (obsolete and reserved).                 00174000
.*                                                                      00177000
.*     &B(3) controls PELSTPMC for the SMC=STEP operand.                00180000
.*                                                                      00183000
.*     &B(5), &B(6), and &B(7) control PELRET1, PELRET2, and PELRET3    00186000
.*                             for the RET= and ECB= operands.          00189000
.*                                                                      00192000
.*     &B(8) controls PELSHARE for the SHARED/EXCLUSIVE operands.       00195000
.*                                                                      00198000
.*  &BA is used to control bits turned ON by an Or Immediate (OI):      00201000
.*                                                                      00204000
.*     &BA(1)=1 indicates that TCB= was specified.                      00207000
.*                                                                      00210000
.*     &BA(2)=1 indicates that GENERIC=YES was specified.               00213000
.*                                                                      00216000
.*     &BA(3)=1 indicates that RNL=NO was specified.               @D1A 00219000
.*                                                                      00222000
.*     &BA(4)=1 indicates that LOC=ANY was specified.              @03A 00225000
.*                                                                      00228000
.*  &BB is used to control bits turned OFF by an And Immediate (IN):    00231000
.*                                                                      00234000
.*     &BB(1)=1 indicates that SMC= was omitted (PELSYSMC).             00237000
.*                                                                      00240000
.*     &BB(2)=1 indicates that RET= was omitted (PELRET1, PELRET2,      00243000
.*              and PELRET3).                                           00246000
.*                                                                      00249000
.*     &BB(3)=1 indicates that an omitted EXCLUSIVE/SHARED operand was  00252000
.*              encountered (PELSHARE).                                 00255000
.*                                                                      00258000
.*     &BB(4) and &BB(5) are affected by the SCOPE and  UCB operands    00261000
.*                       (PELSCPE1 and PELSCPE2).                       00264000
.*                                                                      00267000
.*     &BB(6)=1 indicates that RNL=YES is specified with a MF=E         00270000
.*              invocation.                                        @D1A 00273000
.*                                                                      00276000
.*     &BB(7)=1 indicates that LOC=BELOW is specified with a MF=E       00279000
.*              invocation.                                        @D1A 00282000
.*                                                                      00285000
.*  &LIST is used to control the displacement within the parameter list 00288000
.*        of the bytes undated by the OI, NI, and ST instructions.      00291000
.*                                                                      00294000
.*  &LSTEND is used to control the bits of the PELLAST byte:            00297000
.*                                                                      00300000
.*     80-bit (128 decimal) = PELEOL                                    00303000
.*     40- "  ( 64    "   ) = PELIGNOR                                  00306000
.*     20- "  ( 32    "   ) = PELOCANY (LOC=ANY operand)           @03C 00309000
.*     08- "  (  8    "   ) = PELSAVE  (MASID= operand)                 00312000
.*     04- "  (  4    "   ) = PELNORNL (RNL= operand)              @D1A 00315000
.*     02- "  (  2    "   ) = PELGEN2  (GENERIC= operand)               00318000
.*     01- "  (  1    "   ) = PELTCBF  (TCB= operand)                   00321000
.*                                                                      00324000
.*  &PFLEN is the length of the PEL-Prefix.                             00327000
.*                                                                      00330000
.*  &PFXXXD is the displacement of field XXX from the beginning of the  00333000
.*          PEL-Prefix.  XXX is ECB, TCB, MAS, or MTC.                  00336000
.*                                                                      00339000
.********************************************************************** 00342000
         GBLB  &IHBRES                 RESERVE MACRO CALL INDICATOR     00350002
         GBLB  &IHBDEQ                 DEQ MACRO CALL INDICATOR         00400002
         GBLC  &LABEL                  USED TO BRANCH PAST PARM LIST    00450002
         LCLA  &QN,&RN,&ES,&RL,&SS     INDICES TO PARM SUB OPERANDS     00500002
         LCLA  &PFLEN,&PFTCBD,&PFECBD,&PFMASD,&PFMTCD                  X00516600
                                       PFX LENGTH AND DISPLACMENTS @L1A 00533200
         LCLA  &LEN                    LENGTH INTERMEDIARY              00550002
         LCLA  &LIST                   PARAMETER BUILD LIST POINTER     00600002
         LCLA  &LISTA                  PARAMETER BUILD LIST POINTER     00620002
         LCLA  &MASK0NI,&MASK0OI       BYTE TO 'AND' AND 'OR' BYTE 0    00631400
.*                                     OF AN EXECUTE FORM          @P5C 00642800
         LCLA  &MASK2NI,&MASK2OI       BYTE TO 'AND' AND 'OR' BYTE 2    00654200
.*                                     OF AN EXECUTE FORM          @P5C 00665600
         LCLB  &M(4)                   BITS INDICATING WHETHER TO       00677000
.*                                     PERFORM ABOVE 'AND'S AND 'OR'S   00688400
         LCLA  &NUMBER                 COUNT OF POSITIONAL PARMS        00700002
         LCLA  &BSIZE                  SIZE OF BRANCH TO TAKE WHEN      00712500
.*                                     GENERATING LOOP DURING EXPANSION 00725000
.*                                     OF EXECUTE FORM             @P5A 00737500
         LCLA  &LSTEND                 USED TO SET LISTEND BITS  X02113 00750002
         LCLB  &NQ                     ENQ/RES EXTRA PARM INDICATOR     00800002
         LCLB  &B(8),&BB(7),&BA(4)     Represents bits of code fields. X00833300
                                                                   @03C 00866600
         LCLC  &C                      TO GATHER REG PARM W/O PARENS    00900002
         LCLC  &TYPER                  TO TEST RNAME TYPE ATTRIBUTE     00904100
.*                                                                 @01A 00908300
         AIF   (&IHBDEQ OR &IHBRES).SKIPDAT                             00912500
*         MACRO-DATE = 95/03/03                                    @03C 00925000
.SKIPDAT ANOP                                                           00937500
.*                                                                      00956200
.********************************************************************** 00974900
.* VALIDITY-CHECK COUNT OF POSITIONAL SUB-OPERANDS                    * 00993600
.********************************************************************** 01012300
.*                                                                      01031000
&NQ      SETB  (NOT(&IHBDEQ))                                           01050002
         AIF   ('&MF(1)' NE 'E' AND '&P' EQ '').ERR1                    01100002
&NUMBER  SETA  N'&P                                                     01150002
         AIF   ('&NUMBER' GT '5' AND '&UCB' NE '').ERR7                 01200002
.*                                                                      01225300
.********************************************************************** 01250600
.* DETERMINE THE REQUIRED FORMAT AND LENGTH OF THE PEL-PREFIX         * 01275900
.********************************************************************** 01301200
.*                                                                      01326500
         AIF   ('&TCB' NE '' OR '&ECB' NE '').OLDPF                @L1A 01352200
         AIF   ('&MASID' EQ '').CKMTC                              @L1A 01354400
.NEWPF   ANOP                                                      @L1A 01356600
         AIF   ('&MTCB' EQ '').ERR20          MASID requires MTCB  @02A 01356800
         AIF   ('&TCB' NE '').ERR26           MASID & TCB conflict @02A 01357000
         AIF   ('&MF' NE 'L').NEWPF2                               @L1A 01357400
         AIF   ('&MASID' NE '0').ERR15A                            @L1A 01358200
         AIF   ('&MTCB' NE '0' AND '&MTCB' NE '').ERR15B           @L1A 01359000
.NEWPF2  ANOP                                                      @L1A 01359800
&PFLEN   SETA  20            PREFIX HAS MASID                      @L1A 01361000
&PFTCBD  SETA  0                                                   @L1A 01363200
&PFECBD  SETA  4                                                   @L1A 01365400
&PFMASD  SETA  8                                                   @L1A 01367600
&PFMTCD  SETA  12                                                  @L1A 01369800
         AGO   .NOPF                                               @L1A 01372000
.CKMTC   AIF   ('&MTCB' NE '').ERR11B                              @L1A 01372800
         AGO   .NOPF                                               @L1A 01373600
.OLDPF   AIF   ('&MASID' NE '').NEWPF                              @L1A 01374400
         AIF   ('&MTCB' NE '').ERR11B                              @L1A 01375200
         AIF   ('&ECB' NE '' AND '&TCB' NE '').PFECTC              @L1A 01376400
&PFLEN   SETA  4             PREFIX HAS ECB OR TCB                 @L1A 01378600
&PFTCBD  SETA  0                                                   @L1A 01380800
&PFECBD  SETA  0                                                   @L1A 01383000
         AGO   .NOPF                                               @L1A 01385200
.PFECTC  ANOP                                                      @L1A 01387400
&PFLEN   SETA  8             PREFIX HAS ECB AND TCB                @L1A 01389600
&PFTCBD  SETA  0                                                   @L1A 01391800
&PFECBD  SETA  4                                                   @L1A 01394000
.NOPF    ANOP                                                      @L1A 01396200
.*                                                                      01396600
.********************************************************************** 01397000
.********************************************************************** 01397400
.*  Validity check all keyword operands.  Applies to ALL entries.     * 01397800
.********************************************************************** 01398200
.********************************************************************** 01398600
.*                                                                      01399000
         AIF   (&IHBDEQ).CHKGEN                                  X02113 01400002
         AIF   ('&GENERIC' NE 'NO').ERR18                        X02113 01450002
         AGO   .NCHKGEN                                          X02113 01500002
.CHKGEN  ANOP                                                    X02113 01550002
         AIF   ('&GENERIC' NE 'NO' AND '&GENERIC' NE 'YES').ERR16       01600002
.*                                                               X02113 01650002
         AIF   ('&GENERIC' EQ 'YES' AND '&RET' NE 'HAVE').ERR17  X02113 01700002
.NCHKGEN ANOP                                                    X02113 01750002
         AIF   (&IHBRES OR &IHBDEQ).NOTENQ  Branch if not an ENQ.X02113 01757800
.*                                                                      01765600
.********************************************************************** 01773400
.*  Make some checks unique only to ENQ.                              * 01781200
.********************************************************************** 01789000
.*                                                                      01796800
         AIF   ('&TCB' NE '' AND '&ECB' NE '').BOTH2  RET NOT  @ZA14267 01805000
.*                                     PERMITTED WITH ECB AND  @ZA14267 01810000
.*                                     TCB (SAME AS ECB ONLY)  @ZA14267 01825000
         AIF   ('&RET' EQ 'HAVE' AND '&TCB' NE '').ERR13         X02113 01850002
         AIF   ('&RET' EQ 'NONE' AND '&TCB' NE '').ERR13         X02113 01900002
         AIF   ('&RET' EQ '' AND '&TCB' NE '').ERR13             X02113 01950002
.*                                     TCB NOT ALLOWED WITH      X02113 02000002
.*                                     RET=HAVE,NONE,OMITTED     X02113 02050002
.*                                     ON ENQ                    X02113 02100002
.BOTH2   ANOP                                                  @ZA14267 02110000
         AIF   ('&TCB' NE '' AND '&SMC' NE '').ERR12             X02113 02150002
.*                                     TCB WITH SMC INVALID      X02113 02200002
         AIF   ('&UCB' EQ '').NOUCB   If a UCB was not specified on     02200900
.*                                    this ENQ, branch around issuing   02201800
.*                                    a warning MNOTE.             @PCA 02202700
         MNOTE 4,' While a UCB is tolerated on an ENQ invocation, an ABX02203600
               END438 may be later received during execution.  ThereforX02204500
               e, consideration should be given in replacing this ENQ wX02205400
               ith a RESERVE macro.'                               @PCA 02206300
.NOUCB   ANOP                                                      @PCA 02207200
.NOTENQ  ANOP                                                    X02113 02208300
.*                                                                      02208800
.********************************************************************** 02209300
.*  Validity check the LOC keyword and issue a warning if bad.        * 02209800
.********************************************************************** 02210300
.*                                                                      02210800
         AIF   ('&LOC' NE '' AND '&LOC' NE 'ANY' AND '&LOC' NE 'BELOW')X02211300
               .ERR27               Invalid LOC specified.         @03C 02211800
.*                                                                1@03D 02212300
.*                                                                      02212800
.********************************************************************** 02213300
.*  Validity check the RNL keyword and issue a warning if bad.        * 02213800
.********************************************************************** 02214300
.*                                                                      02214800
         AIF   ('&RNL' NE '' AND '&RNL' NE 'NO' AND '&RNL' NE 'YES').ER*02216600
               R19                     INVALID RNL SPECIFIED       @D1A 02233200
.*                                                                      02242700
.********************************************************************** 02252200
.*  Validity check the ECB, SMC, and RET keywords and their combin-   * 02261700
.*  ations and issue appropriate warning messages if necessary.       * 02271200
.********************************************************************** 02280700
.*                                                                      02290200
         AIF   ('&ECB' NE '' AND '&SMC' NE '' OR '&ECB' NE '' AND '&RET*02300002
               ' NE '').ERR11            SMC, RET NOT ALLOWED WITH ECB  02350002
         AIF   ('&RET' EQ 'NONE' AND '&MASID' NE '').ERR21         @02A 02355500
         AIF   ('&RET' EQ 'USE' AND '&MASID' NE '').ERR22          @02A 02361000
         AIF   ('&RET' EQ 'CHNG' AND '&MASID' NE '').ERR24         @02A 02366500
         AIF   ('&RET' EQ '' AND '&MASID' NE '' AND '&ECB' EQ '').ERR23 02372000
.*                                     MASID/MTCB conflict with    @02A 02377500
.*                                     RET=NONE and RET=USE. Also  @02A 02383000
.*                                     don't let RET be omitted    @02A 02388500
.*                                     unless ECB is specified.    @02A 02394000
.SMC     AIF   ('&SMC' EQ '' OR '&SMC' EQ 'NONE').RET                   02400002
&B(2)    SETB  0                                               @ZA12435 02420000
&B(3)    SETB  ('&SMC' EQ 'STEP')                                       02500002
         AIF   (NOT &B(3)).ERR8                                @ZA12435 02520000
         AIF   ('&MASID' NE '').ERR25  MASID/MTCB & SMC conflict   @02A 02560000
.RET     AIF   ('&RET' EQ '' OR '&RET' EQ 'NONE').RETOK                 02600000
         AIF   (&IHBDEQ).RETDEQ                                         02650002
&B(5)    SETB  ('&RET' EQ 'TEST' OR '&ECB' NE '')                       02700002
&B(6)    SETB ('&RET' EQ 'TEST' OR '&RET' EQ 'USE' OR '&RET' EQ 'CHNG') 02750002
&B(7)    SETB ('&RET' EQ 'TEST' OR '&RET' EQ 'USE' OR '&RET' EQ 'HAVE') 02800002
         AGO   .RETCK                                                   02850002
.RETDEQ  ANOP                                                           02900002
&B(7)    SETB  ('&RET' EQ 'HAVE')                                       02950002
.RETCK   AIF   (NOT &B(5) AND NOT &B(6) AND NOT &B(7)).ERR5             03000002
.RETOK   ANOP                                                           03050000
.*                                                                      03068100
.********************************************************************** 03086200
.*  Validity check the Macro Form (MF=) operand.                      * 03104300
.********************************************************************** 03122400
.********************************************************************** 03140500
.*                  Branch to Execute Form if necessary --->>>        * 03158600
.********************************************************************** 03176700
.********************************************************************** 03194800
.*                                                                      03212900
         AIF   ('&MF(1)' EQ 'E').EROUT Go process Execute form --->>>   03231000
         AIF   ('&MF' EQ 'L').DS       SET NAME FIELD FOR LIST FORM     03250002
         AIF   ('&MF' NE 'I').ERR4     LAST POSSIBLE CHOICE             03300002
.*                                                                      03325000
.********************************************************************** 03350000
.*  Generate branch for Standard Form (MF=I) or MF= omitted.          * 03375000
.********************************************************************** 03400000
.*                                                                      03425000
&LABEL   SETC  'IHB'.'&SYSNDX'         UNIQUE TAG TO BRANCH AROUND LIST 03450002
         CNOP  0,4                                                      03500002
&NAME    BAL   1,&LABEL                BRANCH AROUND AND ADDRESS LIST   03550002
         AGO   .DS2                    GENERATE PARAMETER LIST     @L1C 03570000
.DS      ANOP                                                           03650002
         DS    0F                      ESTABLISH A FULLWORD BOUNDARY    03700000
.*                                                                      03725000
.********************************************************************** 03750000
.*  Generate parameter list for List (MF=L) or Standard (MF=I) form.  * 03775000
.********************************************************************** 03800000
.*                                                                      03825000
.DS2     AIF   (&PFLEN LT 20).CHKTCB1    NOT NEW-FORMAT PREFIX     @L1A 03850200
.*                                                                      03850400
.********************************************************************** 03850600
.*  Generate parameter list if MASID= present.                    @L1A* 03850800
.********************************************************************** 03851000
.*                                                                      03851200
         AIF   ('&MF' EQ 'L' AND '&TCB' NE '' AND '&TCB' NE '0').ERR15 X03851400
                       TCB MUST BE OMITTED OR ZERO ON MF=L         @L1A 03851700
         DC    A(0)                       TCB-ADDRESS              @L1A 03852000
&C       SETC  '0'                     ASSUME NO ECB-ADDRESS       @L1A 03852600
         AIF   ('&ECB' EQ '').PFNOEC                               @L1A 03852900
         AIF   (&IHBDEQ).ERR6          ECB NOT ALLOWED W. DEQ      @L1A 03853200
         AIF   ('&ECB'(1,1) EQ '(' AND '&MF' EQ 'L').ERR3          @L1A 03853500
&B(5)    SETB  1                       ECB INDICATOR (FOR PELRET)  @P3A 03853600
         AIF   ('&ECB'(1,1) EQ '(').PFNOEC                         @L1A 03853800
&C       SETC  '&ECB'                                              @L1A 03854100
.PFNOEC  DC    A(&C)                      ECB-ADDRESS              @L1A 03854400
         DC    A(0)                       MASID VALUE              @L1A 03854700
         DC    A(0)                       MTCB VALUE               @L1A 03855000
         DC    XL3'000000',AL1(&PFLEN)    PREFIX FORMAT-WORD       @L1A 03855300
&LSTEND  SETA  8                       SET PELSAVE FOR NEW PREFIX  @L1A 03855600