         MACRO                                                          00020000
&NAME    EOV   &PARA,&MODE=24                                      @01M 00020900
.*                                                                    * 00021800
.*EOV MACRO                                                           * 00022700
.*                                                                    * 00023600
.*$MAC(EOV):                                                          * 00024500
.*                                                                    * 00025400
.*PROPRIETARY V3 STATEMENT                                              00026100
.*LICENSED MATERIALS - PROPERTY OF IBM                                  00026800
.*"RESTRICTED MATERIALS OF IBM"                                         00027500
.*5695-DF1                                                              00028200
.*(C) COPYRIGHT 1987  IBM CORP.                                         00028900
.*END PROPRIETARY V3 STATEMENT                                          00029900
.*                                                                 @SSA 00031000
.* STATUS = MVS/XA DFP RELEASE 2.3                                    * 00032100
.*                                                                    * 00033200
.*CHANGE ACTIVITY - AS FOLLOWS:                                       * 00034300
.*                                                                    * 00035400
.*$SS=ACB31BIT,HDP2230,,STLSS: O/C/E SUPPORT OF 31-BIT VSAM        @SSA 00036500
.*$01=OY06337,HDP2230,,NSDRJV: MSGIFO087 - MACRO NOT EXPANDABLE    @01A 00037600
.*                                                                    * 00040000
         AIF   ('&PARA' EQ '').E1                                       00060000
         AIF   (T'&MODE EQ 'O' OR '&MODE' EQ '24').BRANCH2         @SSA 00061500
         AIF   ('&MODE' NE '31').E2                                @SSA 00063000
.BRANCH1 ANOP                                                      @SSA 00064500
         AIF   ('&PARA'(1,1) EQ '(').REGA                          @SSA 00066000
&NAME    LA    15,&PARA              LOAD ACB/AMB ADDR IN REG 15   @SSA 00067500
         SR    1,1                   MOVE ZERO TO REG 1            @SSA 00069000
         AGO   .BRANCH3                                            @SSA 00070500
.REGA    ANOP                                                      @SSA 00072000
&NAME    LR    15,&PARA(1)           LOAD ACB/AMB ADDR IN REG 15   @SSA 00073500
         SR    1,1                   MOVE ZERO TO REG 1            @SSA 00075000
         AGO   .BRANCH3                                            @SSA 00076500
.BRANCH2 ANOP                                                      @SSA 00078000
&NAME    IHBINNRA &PARA                                                 00080000
.BRANCH3 SVC   55                                ISSUE EOV SVC     @SSC 00100000
         MEXIT                                                          00120000
.E1      IHBERMAC 06                                                    00140000
         MEXIT                                                     @SSA 00146600
.E2      IGGERMAC 201                       INVALID MODE OPERAND   @SSA 00153200
         MEND                                                           00160000
