*        %GOTO PLS76;   /* BILINGUAL MAPPING                            00050000
         MACRO                                                          00100000
&NAME    ERBSMF76                                                       00150000
***** START OF SPECIFICATIONS ***************************************** 00200000
*   MACCOMP                                                           * 00250000
*   MACSTAT                                                           * 00300000
*   MACMEAN MAPPING MACRO FOR SMF RECORD TYPE 76 (TRACE ACTIVITY)     * 00350000
*                                                                     * 00400000
*   MODULE-NAME = ERBSMF76                                            * 00450000
*                                                                     * 00500000
*   DESCRIPTIVE-NAME = SEE MACMEAN                                    * 00550000
*                                                                     * 00600000
         ERBCOPY1 Y2=1990                                         @Y1C  00650000
*                                                                     * 00700000
*   FUNCTION : THIS MACRO MAPS THE COMPLETE SMF RECORD TYPE 76.       * 00750000
*              THE RECORD IS CREATED BY RMF IF CPU ACTIVITY           * 00800000
*              MEASUREMENTS ARE ACTIVATED.                            * 00850000
*              THE RECORD CONSISTS OF 5 PARTS:                        * 00900000
*              1. THE FIXED PORTION OF THE SMF HEADER.                * 00950000
*                 THIS MAPPING IS INVOKED BY CALLING ERB76HDR MACRO.  * 01000000
*              2. THE INDIVIDUAL HEADER EXTENSION WHICH CONTAINS      * 01050000
*                 OFFSET/LENGTH/NUMBER TRIPLETS TO ADDRESS THE        * 01100000
*                 RECORD PARTS FOLLOWING THE RMF PRODUCT SECTION.     * 01150000
*              3. THE RMF PRODUCT SECTION.                            * 01200000
*                 THIS MAPPING IS INVOKED BY CALLING ERB76PRO MACRO.  * 01250000
*              4. THE RMF CONTROL SECTIONS                            * 01300000
*              5. THE RMF DATA SECTIONS                               * 01350000
*              6. THE VARIABLE FORMAT SET                             * 01400000
*                                                                     * 01450000
*   NOTES : NONE                                                      * 01500000
*                                                                     * 01550000
*   MODULE-TYPE = BILINGUAL MAPPING MACRO                             * 01600000
*                                                                     * 01650000
*   DISTRIBUTION LIBRARY: ARMFMAC1                                @B1A* 01700000
*                                                                     * 01750000
*   CHANGE-ACTIVITY =                                                 * 01800000
*                                                                     * 01850000
*      $N0=MON1,HRM3102,,WBS: NEW FOR RMF 3.1                     @N0A* 01900000
*      $Y1=OPSSI,HRM4420,,CLL: OPERATOR SINGLE SYSTEM IMAGE       @Y1A* 01950000
*      $B1=R430,HRM4430,,THE: DISTRIBUTION LIB IN PROLOG          @B1A* 02000000
*      $D1=R520,HRM5520,,GBO: CLEANUP OF PADI-INCONSISTENCIES     @D1A* 02010003
*                                                                     * 02050000
*   METHOD OF INVOCATION = SEE BELOW                                  * 02100000
*                                                                     * 02150000
*      BAL - ERBSMF76                                                 * 02200000
*                                                                     * 02250000
****** END OF SPECIFICATIONS ****************************************** 02300000
*                                                                       02350000
*  ASM/RSM/SRM TRACE RECORD                                             02400000
*  VARIABLE LENGTH                                                      02450000
*  LENGTH FORMULA = SMF76VFS + ( SMF76VFL * SMF76VFN )                  02500000
*                                                                       02550000
         SPACE 4                                                        02600000
**********************  COMMON SMF HEADER  **************************** 02650000
         ERBHDR 76                                                      02700000
         SPACE 3                                                        02750000
**********************  INDIVIDUAL HEADER EXTENSION  ****************** 02800000
SMF76HDX DS    0CL24    TOTAL HEADER EXTENSION                     @D1C 02850003
SMF76TCS DS    BL4      OFFSET TO TRACE CONTROL SECTION                 02860000
SMF76TCL DS    BL2      LENGTH OF TRACE CONTROL SECTION                 02900000
SMF76TCN DS    BL2      NUMBER OF TRACE CONTROL SECTIONS                02950000
SMF76TDS DS    BL4      OFFSET TO TRACE DATA ENTRY SECTION              03000000
SMF76TDL DS    BL2      LENGTH OF TRACE DATA ENTRY SECTION              03050000
SMF76TDN DS    BL2      NUMBER OF TRACE DATA ENTRY SECTIONS             03100000
SMF76VFS DS    BL4      OFFSET TO VARIABLE FORMAT SET                   03150000
SMF76VFL DS    BL2      LENGTH OF VARIABLE FORMAT SET                   03200000
SMF76VFN DS    BL2      NUMBER OF VARIABLE FORMAT SET                   03250000
         SPACE 3                                                        03300000
**********************  COMMON RMF PRODUCT SECTION  ******************* 03350000
         ERBPRO 76                                                      03400000
         SPACE 3                                                        03450000
**********************  TRACE CONTROL SECTION  ************************ 03500000
*                       TRACE CONTROL AREA                     @Z40FPTH 03550000
SMF76A   DSECT                                                          03600000
SMF76NUM DS    BL2      NUMBER OF SET ENTRIES THAT FOLLOW      @Z40FPPE 03650000
*                       THE TOTAL VALUES                       @Z40FPPE 03700000
SMF76RV4 DS    CL2      RESERVED                               @Z40FPTH 03750000
*                       TRACE DATA ENTRY                       @Z40FPTH 03800000
SMF76B   DSECT                                                          03850000
SMF76NAM DS    CL8      FIELD NAME                             @Z40FPTH 03900000
SMF76OPT DS    BL1      FLAGS(OPTIONS SPECIFIED ON TRACE INPUT @Z40FPTH 03950000
*                       IN RMF  PARMLIB MEMBER FOR THE FIELD   @Z40FPTH 04000000
*                       NAME                                   @Z40FPTH 04050000
*                       BIT  MEANING WHEN SET                  @Z40FPPE 04100000
SMF76MNB EQU   X'80'     0   MINIMUM REQUESTED                 @Z40FPPE 04150000
SMF76MXB EQU   X'40'     1   MAXIMUM REQUESTED                 @Z40FPPE 04200000
SMF76AVB EQU   X'20'     2   AVERAGE REQUESTED                 @Z40FPPE 04250000
SMF76STB EQU   X'10'     3   STANDARD DEVIATION REQUESTED      @Z40FPPE 04300000
SMF76ENB EQU   X'08'     4   END VALUE REQUESTED               @Z40FPPE 04350000
SMF76ALB EQU   X'04'     5   ALL OPTIONS REQUESTED             @Z40FPPE 04400000
SMF76IPS EQU   X'02'     6   IPS CHANGE OCCURRED (AFTER        @Z40FPPE 04450000
*                            INITIALIZATION)                   @Z40FPPE 04500000
SMF76DMB EQU   X'01'     7   NAME IS A DOMAIN TABLE FIELD      @Z40FPPE 04550000
SMF76OP1 DS    BL1      FLAGS                                           04600000
*                       BIT  MEANING WHEN SET                           04650000
SMF76LPB EQU   X'80'     0   LPB - ID TRACE REQUESTED                   04700000
SMF76LPF EQU   X'40'     1   LPB - ID TRACE REQUEST ENDED               04750000
SMF76VLD EQU   X'20'     1   RECORD CONTAINS VALID DATA            @Y1A 04800000
*                                                                       04850000
SMF76SLN DS    BL1      LENGTH OF A SET                        @Z40FPPE 04900000
SMF76DLN DS    BL1      LENGTH OF FIELD SAMPLED                @Z40FPPE 04950000
SMF76SSS DS    BL2      STANDARD SAMPLES PER SET USED          @Z40FPPE 05000000
SMF76SSL DS    BL2      SAMPLES PER SET FOR LAST SET IN INTRVAL@Z40FPPE 05050000
SMF76MIN DS    BL4      MIN. VALUE OF CONTENTS OF FIELD DURING @Z40FPTH 05100000
*                       INTERVAL(SMF26NAM HAS FIELD NAME)      @Z40FPTH 05150000
SMF76MAX DS    BL4      MAX. VALUE OF CONTENTS OF FIELD DURING @Z40FPTH 05200000
*                       INTERVAL                               @Z40FPTH 05250000
SMF76AVG DS    CL8      ACCUMULATED VALUE USED TO COMPUTE THE  @Z40FPPE 05300000
*                       AVERAGE AND STANDARD DEVIATION         @Z40FPPE 05350000
SMF76STD DS    CL12     SUM OF SQUARES USED TO COMPUTE         @Z40FPPE 05400000
*                       STANDARD DEVIATION                     @Z40FPPE 05450000
SMF76ENV DS    BL4      END VALUE OF CONTENTS OF FIELD         @Z40FPTH 05500000
SMF76C   DSECT                                                          05550000
         DS    CL4      FOR VARIABLE FORMAT SETS OF LENGTH 4   @Z40FPPE 05600000
         ORG   SMF76C                                                   05650000
SMF76D   DS    CL2      FOR VARIABLE FORMAT SETS OF LENGTH 2   @Z40FPPE 05700000
         MEND                */                                         05750000
*                       */                                              05800000
*%PLS76: ;                                                              05850000
*/*** START OF SPECIFICATIONS ****************************************/ 05900000
*/* MACCOMP                                                          */ 05950000
*/* MACSTAT                                                          */ 06000000
*/* MACMEAN MAPPING MACRO FOR SMF RECORD TYPE 76 (TRACE ACTIVITY)    */ 06050000
*/*                                                                  */ 06100000
*/* MODULE-NAME = ERBSMF76                                           */ 06150000
*/*                                                                  */ 06200000
*/* DESCRIPTIVE-NAME = SEE MACMEAN                                   */ 06250000
*/*                                                                  */ 06300000
*       ?ERBCOPY1 Y2(1990);                                   /* @Y1C*/ 06350000
*/*                                                                  */ 06400000
*/* FUNCTION : THIS MACRO MAPS THE COMPLETE SMF RECORD TYPE 76.      */ 06450000
*/*            THE RECORD IS CREATED BY RMF IF CPU ACTIVITY          */ 06500000
*/*            MEASUREMENTS ARE ACTIVATED.                           */ 06550000
*/*            THE RECORD CONSISTS OF 5 PARTS:                       */ 06600000
*/*            1. THE FIXED PORTION OF THE SMF HEADER.               */ 06650000
*/*               THIS MAPPING IS INVOKED BY CALLING ERB76HDR MACRO. */ 06700000
*/*            2. THE INDIVIDUAL HEADER EXTENSION WHICH CONTAINS     */ 06750000
*/*               OFFSET/LENGTH/NUMBER TRIPLETS TO ADDRESS THE       */ 06800000
*/*               RECORD PARTS FOLLOWING THE RMF PRODUCT SECTION.    */ 06850000
*/*            3. THE RMF PRODUCT SECTION.                           */ 06900000
*/*               THIS MAPPING IS INVOKED BY CALLING ERB76PRO MACRO. */ 06950000
*/*            4. THE RMF CONTROL SECTIONS                           */ 07000000
*/*            5. THE RMF DATA SECTIONS                              */ 07050000
*/*            6. THE VARIABLE FORMAT SET                            */ 07100000
*/*                                                                  */ 07150000
*/* NOTES : NONE                                                     */ 07200000
*/*                                                                  */ 07250000
*/* MODULE-TYPE = BILINGUAL MAPPING MACRO                            */ 07300000
*/*                                                                  */ 07350000
*/* DISTRIBUTION LIBRARY: ARMFMAC1                               @B1A*/ 07400000
*/*                                                                  */ 07450000
*/* CHANGE-ACTIVITY =                                                */ 07500000
*/*                                                                  */ 07550000
*/*    $N0=MON1,HRM3102,,WBS: NEW FOR RMF 3.1                    @N0A*/ 07600000
*/*    $Y1=OPSSI,HRM4420,,CLL: OPERATOR SINGLE SYSTEM IMAGE      @Y1A*/ 07650000
*/*    $B1=R430,HRM4430,,THE: DISTRIBUTION LIB IN PROLOG         @B1A*/ 07700000
*/*                                                                  */ 07750000
*/* METHOD OF INVOCATION = SEE BELOW                                 */ 07800000
*/*                                                                  */ 07850000
*/*    PLS - %INCLUDE SYSLIB(ERBSMF76)                               */ 07900000
*/*                                                                  */ 07950000
*/**** END OF SPECIFICATIONS *****************************************/ 08000000
*/* LENGTH FORMULA = SMF76VFS + ( SMF76VFL * SMF76VFN )              */ 08050000
 /* RECORD TYPE 76 - ASM/RSM/SRM TRACE RECORD                @Z40FPTH*/ 08100000
*   /* COMMON SMF HEADER */                                             08150000
*?ERBHDR TYPE(76) ATTRIBUT(BASED(SMF76PTR));                            08200000
*   /* INDIVIDUAL HEADER EXTENTION */                                   08250000
*      2 SMF76HDX,                                                      08300000
*        3 SMF76TCS FIXED(31),  /* OFFSET TO TRACE CONTROL SECTION   */ 08350000
*        3 SMF76TCL FIXED(15),  /* LENGTH OF TRACE CONTROL SECTION   */ 08400000
*        3 SMF76TCN FIXED(15),  /* NUMBER OF TRACE CONTROL SECTIONS  */ 08450000
*        3 SMF76TDS FIXED(31),  /* OFFSET TO TRACE DATA ENTRY SECTION*/ 08500000
*        3 SMF76TDL FIXED(15),  /* LENGTH OF TRACE DATA ENTRY SECTION*/ 08550000
*        3 SMF76TDN FIXED(15),  /* NUMBER OF TRACE DATA ENTRY SECT.  */ 08600000
*        3 SMF76VFS FIXED(31),  /* OFFSET TO VARIABLE FORMAT SET     */ 08650000
*        3 SMF76VFL FIXED(15),  /* LENGTH OF VARIABLE FORMAT SET     */ 08700000
*        3 SMF76VFN FIXED(15);  /* NUMBER OF VARIABLE FORMAT SET     */ 08750000
*@SPACE;                                                                08800000
*    /* COMMON RMF PRODUCT SECTION */                                   08850000
*?ERBPRO TYPE(76) ATTRIBUT(BASED(ADDR(SMF76HDR)+SMF76PRS));             08900000
*    /* TRACE CONTROL SECTION */                                        08950000
   DCL 1 SMF76A BASED(ADDR(SMF76HDR)+SMF76TCS) BDY(WORD),  /*@Z40FPTH*/ 09000000
         3 SMF76NUM FIXED(15),           /* NUMBER OF SET ENTRIES       09050000
                                            THAT FOLLOW THE TOTAL       09100000
                                            VALUES                  */  09150000
         3 SMF76RV4 CHAR(2);             /* RESERVED                */  09200000
         @SPACE;                                                        09250000
     /* TRACE DATA ENTRY SECTION   */                                   09300000
   DCL 1 SMF76B BASED(ADDR(SMF76HDR)+SMF76TDS) BDY(WORD),  /*@Z40FPTH*/ 09350000
         3 SMF76NAM CHAR(8),             /* FIELD NAME             */   09400000
         3 SMF76OPT BIT(8),              /* FLAGS(OPTIONS SPECIFIED     09450000
                                           ON TRACE INPUT IN RMF        09500000
                                           PARMLIB MEMBER FOR THE       09550000
                                           FIELD NAME)             */   09600000
           5 SMF76MNB BIT(1),            /* MINIMUM REQUESTED       */  09650000
           5 SMF76MXB BIT(1),            /* MAXIMUM REQUESTED       */  09700000
           5 SMF76AVB BIT(1),            /* AVERAGE REQUESTED       */  09750000
           5 SMF76STB BIT(1),            /* STD. DEV. REQUESTED     */  09800000
           5 SMF76ENB BIT(1),            /* END VALUE REQUESTED     */  09850000
           5 SMF76ALB BIT(1),            /* ALL OPTIONS REQUESTED   */  09900000
           5 SMF76IPS BIT(1),            /* IPS CHANGE OCCURRED         09950000
                                            (AFTER INITIALIZATION)  */  10000000
           5 SMF76DMB BIT(1),            /* NAME IS A DOMAIN TABLE      10050000
                                            FIELD                   */  10100000
         3 SMF76OP1 BIT(8),              /* FLAGS                   */  10150000
           5 SMF76LPB BIT(1),            /* LPB - ID TRACE REQUESTED*/  10200000
           5 SMF76LPF BIT(1),            /* LPB TRACE REQUEST ENDED */  10250000
           5 SMF76VLD BIT(1),            /* ON = VALID DATA     @Y1A*/  10300000
           5 *        BIT(5),            /* RESERVED            @D1C*/  10350003
         3 SMF76SLN FIXED(8),            /* LENGTH OF A SET         */  10400000
         3 SMF76DLN FIXED(8),            /* LENGTH OF FIELD SAMPLED */  10450000
         3 SMF76SSS FIXED(15),           /* SAMPLES PER SET         */  10500000
         3 SMF76SSL FIXED(15),           /* SAMPLES PER SET FOR LAST    10550000
                                            SET IN INTERVAL         */  10600000
         3 SMF76MIN FIXED(32),           /* MIN. VALUE OF CONTENTS      10650000
                                            OF FIELD DURING INTERVAL    10700000
                                            (SMF26NAM HAS FIELD NAME*/  10750000
         3 SMF76MAX FIXED(32),           /* MAX. VALUE OF CONTENTS      10800000
                                            OF FIELD DURING INTERVAL*/  10850000
         3 SMF76AVG CHAR(8),             /* ACCUMULATED VALUE USED      10900000
                                            TO COMPUTE THE AVERAGE      10950000
                                            STANDARD DEVIATION      */  11000000
         3 SMF76STD CHAR(12),            /* SUM OF SQUARES USED TO      11050000
                                            COMPUTE STANDARD            11100000
                                            DEVIATION               */  11150000
         3 SMF76ENV FIXED(32);           /* END VALUE OF CONTENTS       11200000
                                            OF FIELD                */  11250000
 /* SMF76C,D ARE ARRAYS REPRESENTING THE SAME STORAGE:       @Z40FPPE*/ 11300000
 /*   SMF76C IS FOR VARIABLE FORMAT SETS OF LENGTH 4         @Z40FPPE*/ 11350000
 /*   SMF76D IS FOR VARIABLE FORMAT SETS OF LENGTH 2         @Z40FPPE*/ 11400000
   DCL SMF76C (*) CHAR(4) BASED(ADDR(SMF76HDR)+SMF76VFS);               11410002
                                                           /*@Z40FPPE*/ 11420002
   DCL SMF76D (*) CHAR(2) BASED(ADDR(SMF76HDR)+SMF76VFS);               11430002
                                                           /*@Z40FPPE*/ 11440002
