*%GOTO ERBBGN1;                  /* BILINGUAL MACRO                     00050000
         MACRO                                                          00100000
&NAME    ERBSMFR &RECTYPE                                               00150000
*                                */                                     00200000
*%ERBBGN1: ;                                                            00250000
*/********************************************************************/ 00300000
*/*                                                                  */ 00350000
*/* MODULE-NAME = ERBSMFR                                            */ 00400000
*/*                                                                  */ 00450000
*/* DESCRIPTIVE NAME = RMF SMF Record Mapping                        */ 00500000
*/*                                                                  */ 00550000
*/*                                                                  */ 00600000
*/* COPYRIGHT =                                                      */ 00650000
*/*             5685-029 (C) COPYRIGHT IBM CORP. 1977, 1990          */ 00700000
*/*             THIS MODULE IS "RESTRICTED MATERIALS OF IBM"         */ 00750000
*/*             LICENSED MATERIALS-PROPERTY OF IBM                   */ 00800000
*/*             SEE COPYRIGHT INSTRUCTIONS.                          */ 00850000
*/*                                                                  */ 00900000
*/* STATUS =                                                         */ 00950000
*/*             RMF VERSION 4, RELEASE 2, LEVEL 0                    */ 01000000
*/*                                                                  */ 01050000
*/*                                                                  */ 01100000
*/*                                                                  */ 01150000
*/* METHOD OF ACCESS =                                               */ 01200000
*/*   PL/S =                                                         */ 01250000
*/*     %INCLUDE SYSLIB(ERBSMFR) semicolon                           */ 01300000
*/*                                                                  */ 01350000
*/*     NOTE: Macro variables must be set to '1' for each record @Q1C*/ 01400000
*/*           type desired. They are named IFARXX where XX is    @Q1C*/ 01450000
*/*           the record number (70-79).                         @Q1C*/ 01500000
*/*           For SMF Records 72 and 74 an additional variable   @Y1A*/ 01550000
*/*           IFAR72x or IFAR74x = 'YES' requests the subtype.   @Y1A*/ 01600000
*/*           x is the subtype. Default is subtype 1.            @Y1A*/ 01650000
*/*           For SMF Records 78 and 89 additional switches      @Q1C*/ 01700000
*/*           IFAR78X, resp. IFAR79X must be set to one,         @Q1C*/ 01750000
*/*           where X is a subtype of SMF record 78 (1-3)        @Q1C*/ 01800000
*/*           or SMF record 79 (1-E). If SMF record 78,          @Q1A*/ 01850000
*/*           subtype 2, is to be included the additional macro  @Q1A*/ 01900000
*/*           variable IFAR78V must be set to '1' to request     @Q1A*/ 01950000
*/*           automatic inclusion of the necessary mapping       @Q1A*/ 02000000
*/*           ERBVSDAT.                                          @Q1A*/ 02050000
*/*                                                                  */ 02100000
*/*   ASSEMBLER =                                                    */ 02150000
*/*     ERBSMFR (N1,N2,N3,...) Where N1,N2,N3 are the record types   */ 02200000
*/*                            desired in the range 70-79            */ 02250000
*/*     NOTE: If record type 78 and/or 79 is requested all       @Q1C*/ 02300000
*/*           subtypes will be mapped.                           @Q1C*/ 02350000
*/*                                                                  */ 02400000
*/* DISTRIBUTION LIBRARY: ARMFMAC1                               @B1A*/ 02450000
*/*                                                                  */ 02500000
*/* CHANGE-ACTIVITY = see below                                      */ 02550000
*/*                                                                  */ 02600000
*/*  $N0=SMFFORMT,HRM3102,,FRS: SMF RECORD RESTRUCTURING         @N0A*/ 02650000
*/*  $Q1=MISC,HRM3402,,SHR: Enhancements for SMF record 78       @Q1A*/ 02700000
*/*  OZ87634 Enhancements for SMF record 78                  @ZA87634*/ 02750000
*/*  $Y1=MISC,HRM4420,,THE: New COPYRIGHT text and PLAS 1.4      @Y1A*/ 02800000
*/*  $A9=PGRC,JRM4422,,DPN: Change to SMF record 71              @A9A*/ 02850000
*/*  $B1=R430,HRM4430,,THE: Distribution lib in prolog           @B1A*/ 02900000
*/*                                                                  */ 02950000
*/********************************************************************/ 03000000
*%GOTO ERBBGN2;                  /* ASSEMBLER PART                      03050000
         LCLA  &B,&NUM                                                  03100000
         AIF   ('&RECTYPE' EQ '').E1                                    03150000
&NUM     SETA  N'&RECTYPE                                               03200000
         AGO   .CONTC                                                   03250000
.CONTB   ANOP                                                           03300000
&NUM     SETA  &NUM-1                                                   03350000
.CONTC   ANOP                                                           03400000
         AIF   (&NUM LE 0).OUT                                          03450000
&B       SETA  &B+1                                                     03500000
.CKRTY   ANOP                                                           03550000
         AIF   ('&RECTYPE(&B)' EQ '').E3                                03600000
         AIF   (&RECTYPE(&B) LT 70 OR &RECTYPE(&B) GT 79).E5            03650000
         AGO   .CONTA                                                   03700000
.E1      ANOP                                                           03750000
         SPACE 3                                                        03800000
         MNOTE 8,'PARAMETERS OMMITTED, PROCESSING TERMINATED'           03850000
         MEXIT                                                          03900000
.E3      ANOP                                                           03950000
         SPACE 3                                                        04000000
         MNOTE 4,'NULL RECORD TYPE PASSED'                              04050000
         AGO   .CONTB                                                   04100000
.E5      ANOP                                                           04150000
         SPACE 3                                                        04200000
         MNOTE 4,'&RECTYPE(&B) INVALID RECORD TYPE SPECIFIED'           04250000
         AGO   .CONTB                                                   04300000
.CONTA   ANOP                                                           04350000
         AIF   (&RECTYPE(&B) EQ 70).R70                                 04400000
         AIF   (&RECTYPE(&B) EQ 71).R71                                 04450000
         AIF   (&RECTYPE(&B) EQ 72).R72                                 04500000
         AIF   (&RECTYPE(&B) EQ 73).R73                                 04550000
         AIF   (&RECTYPE(&B) EQ 74).R74                                 04600000
         AIF   (&RECTYPE(&B) EQ 75).R75                                 04650000
         AIF   (&RECTYPE(&B) EQ 76).R76                                 04700000
         AIF   (&RECTYPE(&B) EQ 77).R77                                 04750000
         AIF   (&RECTYPE(&B) EQ 78).R78                                 04800000
         AIF   (&RECTYPE(&B) EQ 79).R79                                 04850000
         AGO   .E5                                                      04900000
.R70     ANOP                                                           04950000
         EJECT                                                          05000000
         ERBSMF70                                                       05050000
         AGO   .CONTB                                                   05100000
.R71     ANOP                                                           05150000
         EJECT                                                          05200000
         ERBSMF71                                                       05250000
         AGO   .CONTB                                                   05300000
.R72     ANOP                                                           05350000
         EJECT                                                          05400000
         ERBSMF72                                                       05450000
         AGO   .CONTB                                                   05500000
.R73     ANOP                                                           05550000
         EJECT                                                          05600000
         ERBSMF73                                                       05650000
         AGO   .CONTB                                                   05700000
.R74     ANOP                                                           05750000
         EJECT                                                          05800000
         ERBSMF74                                                       05850000
         AGO   .CONTB                                                   05900000
.R75     ANOP                                                           05950000
         EJECT                                                          06000000
         ERBSMF75                                                       06050000
         AGO   .CONTB                                                   06100000
.R76     ANOP                                                           06150000
         EJECT                                                          06200000
         ERBSMF76                                                       06250000
         AGO   .CONTB                                                   06300000
.R77     ANOP                                                           06350000
         EJECT                                                          06400000
         ERBSMF77                                                       06450000
         AGO   .CONTB                                                   06500000
.R78     ANOP                                                           06550000
         EJECT                                                          06600000
         ERBSMF78                                                       06650000
         AGO   .CONTB                                                   06700000
.R79     ANOP                                                           06750000
         EJECT                                                          06800000
         ERBSMF79                                                       06850000
         AGO   .CONTB                                                   06900000
.OUT     ANOP                                                           06950000
         MEND                                                           07000000
* END ASSEMBLER PART       */                                           07050000
*%ERBBGN2: ;                                                            07100000
*%SMF70: ;                                                              07150000
*%IF IFAR70^='1' %THEN %GOTO SMF71;                                     07200000
 @EJECT;                                                                07250000
*%INCLUDE SYSLIB(ERBSMF70) NOSEG;                                       07300000
*%SMF71: ;                                                              07350000
*%IF IFAR71^='1' %THEN %GOTO SMF72;                                     07400000
*@EJECT;                                                                07450000
*%INCLUDE SYSLIB(ERBSMF71) NOSEG;                                       07500000
*%SMF72: ;                                                              07550000
*%IF IFAR72^='1' %THEN %GOTO SMF73;                                     07600000
*@EJECT;                                                                07650000
*%INCLUDE SYSLIB(ERBSMF72) NOSEG;                                       07700000
*%SMF73: ;                                                              07750000
*%IF IFAR73^='1' %THEN %GOTO SMF74;                                     07800000
*@EJECT;                                                                07850000
*%INCLUDE SYSLIB(ERBSMF73) NOSEG;                                       07900000
*%SMF74: ;                                                              07950000
*%IF IFAR74^='1' %THEN %GOTO SMF75;                                     08000000
*@EJECT;                                                                08050000
*%INCLUDE SYSLIB(ERBSMF74) NOSEG;                                       08100000
*%SMF75: ;                                                              08150000
*%IF IFAR75^='1' %THEN %GOTO SMF76;                                     08200000
*@EJECT;                                                                08250000
*%INCLUDE SYSLIB(ERBSMF75) NOSEG;                                       08300000
*%SMF76: ;                                                              08350000
*%IF IFAR76^='1' %THEN %GOTO SMF77;                                     08400000
*@EJECT;                                                                08450000
*%INCLUDE SYSLIB(ERBSMF76) NOSEG;                                       08500000
*%SMF77: ;                                                              08550000
*%IF IFAR77^='1' %THEN %GOTO SMF78;                                     08600000
*@EJECT;                                                                08650000
*%INCLUDE SYSLIB(ERBSMF77) NOSEG;                                       08700000
*%SMF78: ;                                                              08750000
*%IF IFAR78^='1' %THEN %GOTO SMF79;                                     08800000
*@EJECT;                                                                08850000
*%INCLUDE SYSLIB(ERBSMF78) NOSEG;                                       08900000
*%IF IFAR78V^='1' %THEN %GOTO SMF79;                          /* @Q1A*/ 08950000
*@EJECT;                                                      /* @Q1A*/ 09000000
*%INCLUDE SYSLIB(ERBVSDAT);                                   /* @Q1A*/ 09050000
*%SMF79: ;                                                              09100000
*%IF IFAR79^='1' %THEN %GOTO ENDMAC;                          /* @Y1C*/ 09150000
*@EJECT;                                                                09200000
*%INCLUDE SYSLIB(ERBSMF79) NOSEG;                                       09250000
*%GOTO ENDMAC;                                                /* @Y1C*/ 09300000
*%ENDMAC: ;                                                   /* @Y1C*/ 09350000
