*/*                                                     */              00002200
*/*PROPRIETARY V3 STATEMENT                             */              00004400
*/*LICENSED MATERIALS - PROPERTY OF IBM                 */              00006600
*/*"RESTRICTED MATERIALS OF IBM"                        */              00008800
*/*5695-DF1                                             */              00011000
*/*(C) COPYRIGHT 1992  IBM CORP.                        */              00013200
*/*END PROPRIETARY V3 STATEMENT                         */              00016600
         MACRO                                                          00020000
&NAME    ESETL &DCB                                                     00040000
         AIF   ('&DCB' EQ '').E1                                        00060000
&NAME    IHBINNRA &DCB                                                  00080000
         L     15,84(0,1)                        LOAD ESETL ROUT. ADDR. 00100000
         BALR  14,15                             LINK TO ESETL ROUTINE  00120000
         MEXIT                                                          00140000
.E1      IHBERMAC 06                                                    00160000
         MEND                                                           00180000
