         MACRO                                                          00100000
&NAME    ESPIE &P1,&P2,&P3,&PARAM=,&MF=I                                00150000
*        MACDATE = 08/15/81                                             00160600
.*A000000-999999                                               @G860PPY 00171200
.********************************************************************** 00181800
.*                                                                    * 00192400
.* COPYRIGHT =                                                        * 00201400
.*            5740-XC6                                                * 00210400
.*            THIS MODULE IS "RESTRICTED MATERIALS OF IBM"            * 00219400
.*            (C) COPYRIGHT IBM CORP. 1981                            * 00228400
.*            LICENSED MATERIALS - PROPERTY OF IBM                    * 00237400
.*                                                                    * 00246400
.*                                                                    * 00256000
.*    STATUS = OS/VS2 HBB2102                                         * 00266600
.*                                                                    * 00277200
.*     THE ESPIE MACRO EXPANSION GENERATES CODE WHICH INTERFACES      * 00287800
.*     WITH THE SET, TEST AND RESET FUNCTIONS OF THE ESPIE SVC        * 00298400
.*     SERVICE ROUTINE.                                               * 00309000
.*                                                                    * 00319600
.* CHANGE-ACTIVITY                                                    * 00330200
.*         MVS/SYSTEM PRODUCT VERSION 2 RELEASE 1             @G860PPY* 00340800
.*                                                                    * 00351400
.********************************************************************** 00362000
         LCLA  &DNO,&ENO,&A,&B                                          00372600
         LCLB  &BIT(17),&MFFLAG                                         00383200
         LCLC  &C,&D,&E                                                 00393800
         LCLC  &INST1,&INST2                                            00404400
         LCLC  &LABEL                                                   00416600
&LABEL   SETC  'IHB0&SYSNDX'                                            00433200
.********************************************************************** 00450000
.*       VALIDITY CHECK PARAMETERS                                    * 00500000
.********************************************************************** 00550000
.*       VALIDITY CHECK FUNCTION PARAMETER (FIRST POSITIONAL)           00600000
         AIF   ('&P1' EQ '').ERR1                                       00650000
         AIF   ('&P1' NE 'SET' AND                                     *00700000
               '&P1' NE 'RESET' AND                                    *00750000
               '&P1' NE 'TEST').ERR2                                    00800000
.*       VALIDITY CHECK MUTUALLY EXCLUSIVE PARAMETERS                   00850000
         AIF   ('&P1' EQ 'SET').LBL0015                                 00900000
&INST1   SETC  '&P1'                                                    00950000
&INST2   SETC  'MF'                                                     01250000
         AIF   ('&MF' NE '' AND '&MF(1)' NE 'I').ERR4                   01300000
&INST2   SETC  '&P3'                                                    01350000
         AIF   ('&P3' NE '').ERR4                                       01400000
&INST2   SETC  'PARAM'                                                  01450000
         AIF   ('&PARAM' NE '').ERR4                                    01500000
.LBL0015 ANOP                                                           01550000
.*       VALIDITY CHECK MF PARAMETER                                    01600000
         AIF   ('&MF(1)' EQ '').LBL0020                                 01650000
         AIF   ('&MF(1)' NE 'I' AND                                    *01700000
               '&MF(1)' NE 'L' AND                                     *01750000
               '&MF(1)' NE 'E').ERR3                                    01800000
.LBL0020 ANOP                                                           01850000
.*  VALIDITY CHECK SECOND AND THIRD POSITIONAL PARAMETER                01900000
         AIF   ('&MF(1)' EQ '').LBL0024                                 01930000
         AIF   ('&MF(1)' EQ 'L' OR                                     *01960000
               '&MF(1)' EQ 'E').LBL0025                                 01990000
.LBL0024 ANOP                                                           02020000
         AIF   ('&P2' EQ '').ERR5                                       02050000
         AIF   ('&P1' EQ 'SET' AND                                     *02233000
               '&P3' EQ '').ERR6                                        02250000
.LBL0025 ANOP                                                           02275000
.********************************************************************** 02293700
.*       PROCESS THE TEST FUNCTION OF THE ESPIE MACRO                 * 02312400
.********************************************************************** 02331100
         AIF   ('&P1' NE 'TEST').NOTEST                                 02350000
         AIF   ('&NAME' EQ '').LBL0099                                  02375000
&NAME    DS    0H                                                       02400000
.LBL0099 ANOP                                                           02450000
         AIF   ('&P2'(1,1) EQ '(').LBL0100                              02500000
         LA    1,&P2              PARAMETER LIST ADDRESS                02550000
         AGO   .LBL0110                                                 02600000
.LBL0100 ANOP                                                           02650000
         AIF   (T'&P2 NE 'N').LBL0105                                   02700000
         AIF   (&P2(1) EQ 1).LBL0110                                    02750000
         AIF   (&P2(1) EQ 0 OR &P2(1) GT 12).ERR7                       02800000
.LBL0105 ANOP                                                           02850000
         LR    1,&P2(1)           PARAMETER LIST ADDRESS                02900000
.LBL0110 ANOP                                                           02950000
         LA    0,12               TEST FUNCTION CODE                    02981200
         LA    15,28              SVC ROUTER CODE                       03012400
         SVC   109                                                      03043600
         MEXIT                                                          03074800
.********************************************************************** 03106000
.*       PROCESS THE RESET FUNCTION OF THE ESPIE MACRO                * 03137200
.********************************************************************** 03168400
.NOTEST  ANOP                                                           03200000
         AIF   ('&P1' NE 'RESET').NORESET                               03250000
         AIF   ('&NAME' EQ '').LBL0199                                  03275000
&NAME    DS    0H                                                       03300000
.LBL0199 ANOP                                                           03350000
         AIF   ('&P2'(1,1) EQ '(').LBL0200                              03400000
         L     1,&P2              GET TOKEN                             03450000
         AGO   .LBL0210                                                 03500000
.LBL0200 ANOP                                                           03550000
         AIF   (T'&P2 NE 'N').LBL0205                                   03600000
         AIF   (&P2(1) EQ 1).LBL0210                                    03650000
         AIF   (&P2(1) EQ 0 OR &P2(1) GT 12).ERR7                       03700000
.LBL0205 ANOP                                                           03750000
         LR    1,&P2(1)           GET TOKEN                             03800000
.LBL0210 ANOP                                                           03850000
         LA    0,8                RESET FUNCTION CODE                   03895000
         LA    15,28              SVC ROUTER CODE                       03940000
         SVC   109                                                      03985000
         MEXIT                                                          04030000
.********************************************************************** 04075000
.*       PROCESS THE SET FUNCTION OF THE ESPIE MACRO                  * 04120000
.********************************************************************** 04165000
.NORESET ANOP                                                           04210000
.*       PRODUCE THE INTERRUPT MASK BITS                                04255000
         AIF   ('&P3' EQ '').DONE                                       04300000
&A       SETA  1                  INDEX THE FIRST INTERRUPT SUB-PARM    04350000
.MAIN    AIF   ('&P3(&A)' EQ '').BUMP BLANK OPERANDS IGNORED            04400000
&C       SETC  '&P3(&A)'          A MORE WORKABLE FORM                  04450000
         AIF   ('&C'(1,1) EQ '(').SERIES IN PARENS MEANS FROM X TO Y    04500000
         AIF   (T'&P3(&A) NE 'N').ERR8 MUST BE A NUMBER                 04550000
         AIF   (&P3(&A) LT 1 OR &P3(&A) GT 17 OR                       X04583300
               &P3(&A) EQ 16).ERR8                                      04616600
&BIT(&C) SETB  1                  SET APPROPRIATE MASK BIT              04650000
.BUMP    AIF   (&A EQ N'&P3).DONE ALL CHECKED                           04700000
&A       SETA  &A+1               BUMP INDEX                            04750000
         AGO   .MAIN              GET NEXT                              04800000
.*       PROCESS A SERIES OF BITS                                       04850000
.SERIES  AIF   ('&C'(3,1) EQ ',').SHORT ONE DIGIT NUMBER TO START       04900000
.*       START WITH A TWO DIGIT NUMBER                                  04950000
&D       SETC  '&C'(2,2)          START OF THE SEQUENCE                 05050000
         AIF   ('&C'(4,1) NE ',' OR '&C'(7,1) NE ')').ERR8              05100000
&E       SETC  '&C'(5,2)          END OF SEQUENCE                       05150000
         AGO   .SETSER            GO TO SET THE BITS                    05200000
.*       START WITH A ONE DIGIT NUMBER                                  05250000
.SHORT   ANOP                                                           05300000
&D       SETC  '&C'(2,1)          START OF THE SEQUENCE                 05350000
         AIF   ('&C'(5,1) EQ ')').SHORT2 CHECK 2ND LENGTH OF 1          05400000
         AIF   ('&C'(6,1) NE ')').ERR8 TOO MANY OR TOO LONG             05450000
&E       SETC  '&C'(4,2)          END OF THE SEQUENCE                   05500000
         AGO   .SETSER                                                  05550000
.SHORT2  ANOP                                                           05600000
&E       SETC  '&C'(4,1)          END OF THE SEQUENCE                   05650000
.*       SET ON THE SERIES                                              05700000
.SETSER  ANOP                                                           05750000
.*       NOTE THAT PIC 16 IS NOT VALID IN A RANGE                       05758300
         AIF   ('&D' LT '1' OR '&D' GT '15').ERR8                       05766600
         AIF   ('&E' LT '1' OR '&E' GT '15').ERR8                       05783200
&DNO     SETA  &D                 GET THE ALGEBRAIC EQUIVALENT          05800000
&ENO     SETA  &E                 GET THE ALGEBRAIC EQUIVALENT          05850000
         AIF   (&DNO GT &ENO).ERR8                                      05900000
.INNER   ANOP                                                           06000000
&BIT(&DNO)  SETB  1               INDEX AND SET ON THE BIT              06050000
         AIF   (&DNO EQ &ENO).BUMP DONE, GET NEXT SUB OPERAND           06100000
&DNO     SETA  &DNO+1             GET NEXT IN SERIES                    06150000
         AGO   .INNER             SET IT ON                             06200000
.DONE    ANOP                                                           06250000
         AIF   ('&MF' NE 'L').LBL0400                                   06300000
.********************************************************************** 06304500
.*       PROCESS LIST FORM OF ESPIE SET FUNCTION                      * 06309000
.********************************************************************** 06313500
.*       VALIDITY CHECK REGISTER USAGE WITH LIST FORM MACRO           * 06318000
         AIF   ('&P2' EQ '').LBL0290                                    06322500
         AIF   ('&P2'(1,1) EQ '(').ERR7                                 06327000
.LBL0290 ANOP                                                           06331500
         AIF   ('&PARAM' EQ '').LBL0295                                 06336000
         AIF   ('&PARAM'(1,1) EQ '(').ERR9                              06340500
.LBL0295 ANOP                                                           06345000
&NAME    DS    0F                                                       06350000
.LBL0300 ANOP                                                           06450000
.*       PROCESS EXIT ROUTINE ADDRESS                                   06500000
         AIF   ('&P2' EQ '').LBL0310                                    06550000
         AIF   ('&P2'(1,1) EQ '(').LBL0310                              06600000
         DC    A(&P2)             USER EXIT ROUTINE ADDRESS             06650000
         AGO   .LBL0315                                                 06700000
.LBL0310 ANOP                                                           06750000
         DC    A(0)               USER EXIT ROUTINE ADDRESS             06800000
.LBL0315 ANOP                                                           06850000
.*       PROCESS USER PARAMETER LIST ADDRESS                            06900000
         AIF   ('&PARAM' EQ '').LBL0320                                 06950000
         AIF   ('&PARAM'(1,1) EQ '(').LBL0320                           07000000
         DC    A(&PARAM)          USER PARAMETER LIST ADDRESS           07050000
         AGO   .LBL0325                                                 07100000
.LBL0320 ANOP                                                           07150000
         DC    A(0)               USER PARAMETER LIST ADDRESS           07200000
.LBL0325 ANOP                                                           07250000
.*       PROCESS PROGRAM INTERRUPTION MASK                              07300000
         DC    B'0&BIT(1)&BIT(2)&BIT(3)&BIT(4)&BIT(5)&BIT(6)&BIT(7)&BIT*07350000
               (8)&BIT(9)&BIT(10)&BIT(11)&BIT(12)&BIT(13)&BIT(14)&BIT(1*07400000
               5)'                INTERRUPTION MASK                     07450000
         DC    B'0&BIT(17)00000000000000'                               07550000
         DC    A(0)               RESERVED                              07600000
         AIF   (&MFFLAG).LBL0450                                        07650000
         MEXIT                                                          07700000
.********************************************************************** 07725000
.LBL0400 ANOP                                                           07750000
.*       TEST OTHER MACRO FORMS                                         07800000
         AIF   ('&MF' NE '' AND '&MF' NE 'I').LBL0500                   07850000
&MFFLAG  SETB  1                                                        07900000
         AIF   ('&NAME' EQ '').LBL0402                                  07925000
&NAME    DS    0H                                                       07950000
.LBL0402 ANOP                                                           07950100
.********************************************************************** 07950300
.*       PROCESS STANDARD FORM OF SET FUNCTION                        * 07950600
.********************************************************************** 07950900
         AIF   ('&P2'(1,1) NE '(').LBL0410                              07951200
         AIF   (T'&P2 NE 'N').LBL0405                                   07951800
         AIF   (&P2(1) LT 2 OR &P2(1) GT 12).ERR7                       07952400
.LBL0405 ANOP                                                           07953000
         ST    &P2(1),&LABEL      USER EXIT ADDRESS                     07953600
.LBL0410 ANOP                                                           07954200
         AIF   ('&PARAM' EQ '').LBL0420                                 07954800
         AIF   ('&PARAM'(1,1) NE '(').LBL0420                           07955400
         AIF   (T'&PARAM(1) NE 'N').LBL0415                             07955600
         AIF   (&PARAM(1) LT 2 OR &PARAM(1) GT 12).ERR9                 07955800
.LBL0415 ANOP                                                           07956000
         ST    &PARAM(1),&LABEL+4   USER PARM LIST ADDRESS              07956200
.LBL0420 ANOP                                                           07956600
         CNOP  0,4                                                      07957200
         BAS   1,*+20                                                   07957800
&LABEL   EQU   *                                                        07958400
         AGO   .LBL0300         PRODUCE LIST FORM AND RETURN            07959000
.LBL0450 ANOP                                                           07959600
         LA    0,4                SET FUNCTION CODE                     07960200
         LA    15,28              SVC ROUTER CODE                       07960800
         SVC   109                                                      07961400
         MEXIT                                                          07962500
.********************************************************************** 07965600
.*       PROCESS EXECUTE FORM OF SET FUNCTION                         * 07968700
.********************************************************************** 07971800
.LBL0500 ANOP                                                           07975000
         AIF   ('&MF(1)' NE 'E').ERR3                                   07976400
&NAME    IHBINNRA &MF(2)        LOAD REGISTER WITH LIST ADDRESS         07977800
         AIF   ('&P2' EQ '').LBL0520                                    07979400
         AIF   ('&P2'(1,1) NE '(').LBL0510                              07981600
         ST    &P2(1),0(,1)       EXIT ROUTINE ADDRESS                  07983800
         AGO   .LBL0520                                                 07986000
.LBL0510 ANOP                                                           07988200
         LA    0,&P2              MOVE EXIT ROUTINE ADDRESS             07990400
         ST    0,0(,1)            INTO PARAMETER LIST                   07992600
.LBL0520 ANOP                                                           07994800
         AIF   ('&PARAM' EQ '').LBL0540                                 07997000
         AIF   ('&PARAM'(1,1) NE '(').LBL0530                           07999200
         ST    &PARAM(1),4(,1)    USER PARAMETER LIST ADDRESS           08001400
         AGO   .LBL0540                                                 08003600
.LBL0530 ANOP                                                           08005800
         LA    0,&PARAM           MOVE USER PARAMETER LIST ADDRESS      08008000
         ST    0,4(,1)            INTO PARAMETER LIST                   08010200
.LBL0540 ANOP                                                           08012400
         AIF   (&BIT(1) OR &BIT(2) OR &BIT(3) OR &BIT(4) OR &BIT(5) OR *08014200
               &BIT(6) OR &BIT(7)).LBL0550                              08015400
         AIF   (&BIT(8) OR &BIT(9) OR &BIT(10) OR &BIT(11) OR &BIT(12) *08016600
               OR &BIT(13) OR &BIT(14) OR &BIT(15)).LBL0550             08017800
         AIF   (&BIT(17)).LBL0550                                       08018400
         AGO   .LBL0560                                                 08019000
.LBL0550 ANOP                                                           08020200
         MVI   8(1),B'0&BIT(1)&BIT(2)&BIT(3)&BIT(4)&BIT(5)&BIT(6)&BIT(7*08021400
               )'                                                       08023200
         MVI   9(1),B'&BIT(8)&BIT(9)&BIT(10)&BIT(11)&BIT(12)&BIT(13)&BI*08036600
               T(14)&BIT(15)'                                           08038800
         MVI   10(1),B'0&BIT(17)000000'                                 08039900
.LBL0560 ANOP                                                           08041000
         AGO   .LBL0450                                                 08043200
.********************************************************************** 08044900
.*       DIAGNOSTICS                                                  * 08046600
.********************************************************************** 08048300
.ERR1    ANOP                                                           08050000
         MNOTE 12,'FIRST POSITIONAL PARAMETER (FUNCTION) IS MISSING'    08100000
         MEXIT                                                          08150000
.ERR2    ANOP                                                           08200000
         MNOTE 12,'FIRST POSITIONAL PARAMETER (FUNCTION) IS INVALID'    08250000
         MEXIT                                                          08300000
.ERR3    ANOP                                                           08350000
         MNOTE 8,'MF PARAMETER IS INVALID'                              08400000
         MEXIT                                                          08450000
.ERR4    ANOP                                                           08500000
         MNOTE 8,'&INST1 AND &INST2 ARE MUTUALLY EXCLUSIVE'             08550000
         MEXIT                                                          08600000
.ERR5    ANOP                                                           08650000
         MNOTE 8,'SECOND POSITIONAL PARAMETER IS MISSING'               08700000
         MEXIT                                                          08750000
.ERR6    ANOP                                                           08800000
         MNOTE 8,'(INTERRUPTIONS) PARAMETER IS MISSING'                 08850000
         MEXIT                                                          08900000
.ERR7    ANOP                                                           08950000
         MNOTE 8,'SECOND POSITIONAL PARAMETER IS INVALID'               09000000
         MEXIT                                                          09050000
.ERR8    ANOP                                                           09100000
         MNOTE 8,'(INTERRUPTIONS) PARAMETER IS INVALID'                 09150000
         MEXIT                                                          09200000
.ERR9    ANOP                                                           09212500
&LABEL   EQU   *                                                        09218700
         MNOTE 8,'PARAM PARAMETER IS INVALID'                           09225000
         MEXIT                                                          09237500
         MEND                                                           09250000
