*    MACCOMP SCRTM                                                      00050000
*    MACSTAT OSVS2 HBB6601                                              00100000
*    MACMEAN ESTAE - EXTENDED SPECIFY TASK ABNORMAL EXIT     @G860P1C   00150000
*                    SYSTEM 370 COMPATIBLE LEVEL             @G860P1C   00200000
*   COPYRIGHT =                                                         00235700
*              5645-001                                                 00271400
*              THIS MODULE IS "RESTRICTED MATERIALS OF IBM"             00307100
*              (C) COPYRIGHT IBM CORP. 1980,1996                        00342800
*              LICENSED MATERIALS - PROPERTY OF IBM                     00378500
*                                                                       00414200
*01* EXTERNAL CLASSIFICATION:  GUPI                                   * 00421300
*                                                                     * 00428400
*01* END OF EXTERNAL CLASSIFICATION:                                  * 00435500
*                                                                     * 00442600
*    COMMENT   WHEN RESERVED BITS / BYTES ARE ASSIGNED, THE    @ZMD0006 00450000
*              IMPLEMENTATION MUST TAKE INTO ACCOUNT           @ZMD0006 00500000
*              DOWNWARD COMPATIBILITY. THAT IS, THE CODE       @ZMD0006 00550000
*              MUST ENSURE THAT PREVIOUS FAILURES TO CLEAN     @ZMD0006 00600000
*              THE RESERVED BITS / BYTES DO NOT RESULT IN      @ZMD0006 00650000
*              USAGE OF UNINTENDED (NEW) FUNCTIONS. THE        @ZMD0006 00700000
*              ABILITY TO SET A BIT FUNCTION ON ONE            @ZMD0006 00750000
*              INVOCATION AND CONTINUE TO APPLY ON SUBSEQUENT  @ZMD0006 00800000
*              INVOCATIONS MUST ALSO BE CONSIDERED, ACCORDING  @ZMD0006 00850000
*              TO THE REQUIREMENTS OF THE NEW FUNCTION.        @ZMD0006 00900000
         MACRO                                                          00950000
&NAME    ESTAE7 &EXIT,&TYPE,&PARAM=I,&XCTL=NO,&MF=I,&PURGE=,&ASYNCH=,  J01050000
               &TCB=,&ESTAR=,&TERM=,&RECORD=,&BRANCH=,&SVEAREA=,       J01100000
               &RELATED=,&KEY=,&TOKEN=,&TKNPASS=NO             @G860P1C 01150000
*    MACDATE   03/05/82   S/370 LEVEL OF ESTAE                 @ZMC3023 01175000
.* A-000000-999999                                             @G860P1C 01200000
.*   MOVED PROMT COMMENT CARD TO LINE JUST ABOVE               @ZMC3023 01225000
         LCLA  &LENGTH                                                  01250000
         LCLA  &FLAGS                                                   01300000
         LCLA  &FLGS                                                    01350000
         LCLA  &ANDOFF                                                  01400000
         LCLA  &TESTF                                                   01450000
         LCLA  &FLAGS2                                                  01500000
         LCLA  &FLAGS3                                                  01550000
         LCLA  &TURNOFF                                                 01600000
         LCLA  &EXITL                                                   01650000
         LCLA  &KEYVAL                                                  01700000
         LCLA  &FLAGS4                                       @G81CP2F   01750000
         LCLB  &TERMON                                                  01800000
         LCLB  &RECON                                                   01850000
         LCLB  &BRNCHON                                                 01900000
         LCLB  &ASY                                                     01950000
         LCLB  &ASY1                                                    02000000
         LCLB  &HALT                                                    02050000
         LCLB  &NONE                                                    02100000
         LCLB  &PNONE                                                   02150000
         LCLB  &TCBON                                                   02200000
         LCLB  &ASYOFF                                                  02250000
         LCLB  &PRGOFF                                                  02300000
         LCLB  &TERMOFF                                                 02350000
         LCLB  &RECOFF                                                  02400000
         LCLB  &BRANOFF                                                 02450000
         LCLB  &STAROFF                                                 02500000
         LCLB  &ESTARON                                                 02550000
         LCLB  &ESTA                                                    02600000
         LCLB  &TOK                                          @G81CP2F   02650000
         LCLC  &GNAME                                                   02700000
         LCLC  &LNAME                                                   02750000
         LCLC  &EXITR                                                   02800000
&ASY1    SETB  ('&ASYNCH' EQ 'YES')                                     02850000
&ASY     SETB  ('&ASYNCH' EQ 'YES' OR '&ASYNCH' EQ '')                  02900000
&HALT    SETB  ('&PURGE' EQ 'HALT')                                     02950000
&NONE    SETB  ('&PURGE' EQ 'NONE' OR '&PURGE' EQ '')                   03000000
&PNONE   SETB  ('&PURGE' EQ 'NONE')                                     03050000
&TOK     SETB  ('&TOKEN' NE '')                              @G81CP2F   03100000
&TCBON   SETB  ('&TCB' NE '')                                           03150000
&ESTARON SETB  ('&ESTAR' EQ 'YES')                                      03200000
&ESTA    SETB  1               ESTAE INDICATOR                          03250000
&FLAGS   SETA  128*&TCBON+64*&ESTARON+16*&ESTA+8*&TOK+4*&ASY+2*&NONE+&HS03300000
               ALT                                           @G81CP2F   03350000
&FLGS    SETA  128*&TCBON+64*&ESTARON+16*&ESTA+8*&TOK+4*&ASY1+2*&PNONE+S03400000
               &HALT                                         @G81CP2F   03450000
&FLAGS4  SETA  128*&TCBON+64*&ESTARON+16*&ESTA+4*&ASY+2*&NONE+&HALT     03500000
.*                                                           @G81CP2F   03550000
&TERMON  SETB  ('&TERM' EQ 'YES')                                       03600000
&RECON   SETB  ('&RECORD' EQ 'YES')                                     03650000
&BRNCHON SETB  ('&BRANCH' EQ 'YES')                                     03700000
&FLAGS2  SETA  (64*&TERMON+32*&RECON)                                   03750000
&LENGTH  SETA  24                                            @G81CP2F   03800000
         AIF   ('&KEY' NE '' AND '&BRANCH' EQ '').NOKEY                 03850000
         AIF   ('&KEY' NE '' AND '&BRANCH' EQ 'NO').NOKEY               03900000
         AIF   ('&TCB' EQ '').NOSTAI                                    03950000
         AIF   ('&XCTL' EQ 'NO').NIXXCTL                                04000000
         IHBERMAC 1020,XCTL,TCB                                         04050000
         MEXIT                                                          04100000
.NOKEY  MNOTE    8,'**** KEY OPERAND ONLY ALLOWED WITH BRANCH'          04150000
        MEXIT                                                           04200000
.NIXXCTL ANOP                                                           04250000
         AIF   ('&EXIT' EQ '0').ER1                                     04300000
         AIF   ('&TYPE' EQ 'OV').ER2                                    04350000
         AIF   ('&BRANCH' EQ 'YES').ER4                                 04400000
         AGO   .NOSTAI                                                  04450000
.ER1     ANOP                                                           04500000
         IHBERMAC 1020,EXIT/0,TCB                                       04550000
         MEXIT                                                          04600000
.ER2     ANOP                                                           04650000
         IHBERMAC 1020,TYPE/OV,TCB                                      04700000
         MEXIT                                                          04750000
.ER3     ANOP                                                           04800000
         IHBERMAC 1020,XCTL,ESTAR                                       04850000
         MEXIT                                                          04900000
.ER4     ANOP                                                           04950000
         IHBERMAC 1020,BRANCH,TCB                                       05000000
         MEXIT                                                          05050000
.NOSTAI  ANOP                                                           05100000
         AIF   ('&TCB' EQ '' AND '&TYPE' EQ 'PROP').ER10                05150000
         AIF   ('&ESTAR' NE '' AND '&ESTAR' NE 'YES' AND '&ESTAR'      J05200000
               NE 'NO').ESTARER                                         05250000
         AIF   ('&ESTAR' NE 'YES').NOSTAR                               05300000
         AIF   ('&XCTL' NE 'NO').ER3                                    05350000
         AIF   ('&TYPE' EQ 'PROP').ER5                                  05400000
         AIF   ('&BRANCH' EQ 'YES').ER6                                 05450000
         AIF   ('&EXIT' EQ '0').ER7                                     05500000
         AIF   ('&TCB' NE '').ER8                                       05550000
         AIF   ('&PURGE' NE 'HALT').ER11                                05600000
.NOSTAR  ANOP                                                           05650000
         AIF   (('&EXIT' EQ '0') AND ('&TYPE' NE '' OR '&PARAM' NE 'I' J05700000
               OR '&XCTL' NE 'NO' OR '&PURGE' NE '' OR '&ASYNCH' NE    J05750000
               '' OR '&TERM' NE '' OR '&RECORD' NE '')).CANERR          05800000
.RESUME  ANOP                                                           05850000
         AIF   ('&ASYNCH' NE '' AND '&ASYNCH' NE 'NO' AND '&ASYNCH' NE C05900000
               'YES').ERRASY                                            05950000
         AIF   ('&PURGE' NE '' AND '&PURGE' NE 'HALT' AND '&PURGE' NE  C06000000
               'NONE' AND '&PURGE' NE 'QUIESCE').PURERR                 06050000
         AIF   ('&TERM' NE '' AND '&TERM' NE 'YES' AND '&TERM' NE      J06100000
               'NO').TERMERR                                            06150000
         AIF   ('&RECORD' NE '' AND '&RECORD' NE 'YES' AND '&RECORD'   J06200000
               NE 'NO').RECERR                                          06250000
         AIF   ('&BRANCH' NE '' AND '&BRANCH' NE 'YES' AND '&BRANCH'   J06300000
               NE 'NO').BRNERR                                          06350000
         AIF   ('&TYPE' NE 'PROP' AND '&TYPE' NE 'CT' AND '&TYPE'      J06400000
               NE 'OV' AND '&TYPE' NE '').BADOPT                        06450000
         AIF   ('&MF(1)' EQ 'L').LROUT                                  06500000
         AIF   ('&BRANCH' EQ 'YES' AND '&SVEAREA' EQ '').SAVERR         06550000
         AIF   ('&KEY' EQ 'SAVE' OR '&KEY' EQ '').OK1                   06600000
         AIF  ('&KEY' GT '15' OR '&KEY' LT '0').BADKEY                  06650000
.OK1     AIF   ('&MF(1)' EQ 'I').IROUT                                  06700000
         AIF   ('&MF(1)' EQ 'E').EROUTA                                 06750000
         IHBERMAC 35,,&MF(1)            INVALID MF= OPERAND             06800000
         MEXIT                                                          06850000
.ER5     ANOP                                                           06900000
         IHBERMAC 1020,TYPE/PROP,ESTAR                                  06950000
         MEXIT                                                          07000000
.ER6     ANOP                                                           07050000
         IHBERMAC 1020,BRANCH,ESTAR                                     07100000
         MEXIT                                                          07150000
.ER7     ANOP                                                           07200000
         IHBERMAC 1020,EXIT/0,ESTAR                                     07250000
         MEXIT                                                          07300000
.ER8     ANOP                                                           07350000
         IHBERMAC 1020,TCB,ESTAR                                        07400000
         MEXIT                                                          07450000
.ER10    ANOP                                                           07500000
         MNOTE 12,'***     TCB MUST BE SPECIFIED WITH TYPE/PROP'        07550000
         MEXIT                                                          07600000
.ER11    ANOP                                                           07650000
         IHBERMAC 1020,PURGE/QUIESCE/NONE,ESTAR                         07700000
         MEXIT                                                          07750000
.CANERR  ANOP                                                           07800000
         MNOTE 0,'***   EXCESS PARAMETERS W/ CANCEL IGNORED' @G38NP38   07850000
         AGO   .RESUME                                                  07900000
.SAVERR  ANOP                                                           07950000
         MNOTE 12,'***   SVEAREA MUST BE SPECIFIED WITH BRANCH/YES'     08000000
         MEXIT                                                          08050000
.*.*.*.*.*.*.*.*.*.*.*.*.*.*.*.*.*.*.*.*.*.*.*.*.*.*.*.*.*.*.*.*        08100000
.*                                                                      08150000
.*       EXECUTE ROUTE       MF=E                                       08200000
.*                                                                      08250000
.*.*.*.*.*.*.*.*.*.*.*.*.*.*.*.*.*.*.*.*.*.*.*.*.*.*.*.*.*.*.*.*        08300000
.EROUTA  AIF   (N'&MF GT 2).EXCESSA                                     08350000
.EROUT   AIF   ('&MF(2)' NE '').EXEC                                    08400000
.NOPARM  IHBERMAC 24                    REQ'D. PARMS. MISSING           08450000
         MEXIT                                                          08500000
.EXEC    ANOP                                                           08550000
&ASYOFF  SETB  ('&ASYNCH' EQ 'NO')                                      08600000
&PRGOFF  SETB  ('&PURGE' NE '')                                         08650000
&STAROFF SETB  ('&ESTAR' EQ 'NO')                                       08700000
&ANDOFF  SETA  255-(64*&STAROFF+4*&ASYOFF+3*&PRGOFF)                    08750000
&TERMOFF SETB  ('&TERM' EQ 'NO')                                        08800000
&RECOFF  SETB  ('&RECORD' EQ 'NO')                                      08850000
&BRANOFF SETB  ('&BRANCH' EQ 'NO')                                      08900000
&TURNOFF SETA  255-(64*&TERMOFF+32*&RECOFF)                             08950000
         AIF   ('&EXIT' EQ '0').CANCEL1                       @ZMB0628  09000000
&NAME    IHBINNRA &MF(2)               LOAD LIST ADDR IN REG 1          09050000
         AIF   ('&EXIT' EQ '').TSTPX                                    09100000
         AIF   ('&EXIT'(1,1) EQ '(').ST1                                09150000
         IHBINNRA ,&EXIT               LOAD NEW EXIT ADDR IN REG 0      09200000
         STCM  0,7,1(1)                STORE USER EXIT ADDRESS          09250000
         AGO   .TSTPX                                                   09300000
.ST1     ANOP                                                           09350000
         STCM  &EXIT(1),7,1(1)         STORE USER EXIT ADDRESS          09400000
.TSTPX   ANOP                                                           09450000
         AIF   (&ANDOFF EQ 255).TESTOR                                  09500000
&TESTF   SETA  (&FLGS+64*&STAROFF+32+8+4*&ASYOFF+3*&PRGOFF)             09550000
         AIF   (&TESTF GE 255).MVI1                                     09600000
         NI    0(1),&ANDOFF            TURN OFF FLAG BITS               09650000
.TESTOR  ANOP                                                           09700000
         OI    0(1),&FLGS              FLAGS FOR TCB,PURGE,ASYNCH       09750000
         AGO   .MVISKP1                                                 09800000
.MVI1    MVI   0(1),&FLGS              SET FLAGS FOR TCB,PURGE,ASYNCH   09850000
.MVISKP1 AIF   ('&PARAM' EQ 'I').ETSTTCB                                09900000
         AIF   ('&PARAM'(1,1) EQ '(').ST2                               09950000
         IHBINNRA ,&PARAM                                               10000000
         ST    0,4(0,1)                MODIFY REMOTE LIST - PARM ADDR   10050000
         AGO   .ETSTTCB                                                 10100000
.ST2     ST    &PARAM(1),4(0,1)        MODIFY LIST - PARAM ADDR         10150000
.ETSTTCB AIF   ('&TCB' EQ '').TSTPX2                                    10200000
         AIF   ('&TCB'(1,1) EQ '(').ST3                                 10250000
         IHBINNRA ,&TCB                                                 10300000
         ST    0,8(0,1)                MODIFY LIST - TCB ADDR.          10350000
         AGO   .TSTPX2                                                  10400000
.ST3     ST    &TCB(1),8(0,1)          MODIFY LIST - TCB ADDR           10450000
.TSTPX2  ANOP                                                           10500000
&TESTF   SETA   (&FLAGS2+128+64*&TERMOFF+32*&RECOFF+16+4+3)             10550000
         AIF    (&TESTF GE 255).MVI2                                    10600000
         AIF   (&TURNOFF EQ 255).TSTORF                                 10650000
         NI    12(1),&TURNOFF          TURN OFF FLAG BITS               10700000
.TSTORF  ANOP                                                           10750000
         AIF   (&FLAGS2 EQ 0).TSTTOK                         @G81CP2F   10800000
         OI    12(1),&FLAGS2           FLAGS FOR TERM AND RECORD        10850000
         AGO   .TSTTOK                                       @G81CP2F   10900000
.MVI2    MVI   12(1),&FLAGS2           FLAGS FOR TERM AND RECORD        10950000
.TSTTOK  ANOP                                                @G81CP2F   11000000
         AIF   ('&TOKEN' EQ '').TSTOPT                       @G81CP2F   11050000
         AIF   ('&TOKEN'(1,1) EQ '(').ST4                    @G81CP2F   11100000
         AIF   (T'&TOKEN EQ 'N').SELFDEF                     @G81CP2F   11150000
         AIF   ('&EXIT' NE '0' AND '&TYPE' NE 'OV').TSTOPT   @G81CP2F   11200000
         L     0,&TOKEN            LOAD TOKEN VALUE          @G81CP2F   11250000
         ST    0,16(0,1)           MODIFY LIST - TOKEN VALUE @G81CP2F   11300000
         AGO   .TSTOPT                                       @G81CP2F   11350000
.ST4     ANOP                                                @G81CP2F   11400000
         AIF   ('&EXIT' NE '0' AND '&TYPE' NE 'OV').TSTOPT   @G81CP2F   11450000
         ST    &TOKEN(1),16(0,1)   MODIFY LIST - TOKEN VALUE @G81CP2F   11500000
.TSTOPT  ANOP                                                           11550000
         AIF   ('&EXIT' EQ '0').CANCEL                                  11600000
         AIF   ('&TOKEN' NE '' OR '&TKNPASS' EQ 'YES').TKPASS @ZMD0006  11650000
         NI    0(1),B'11010111'      INIT BIT 3 AND 5 TO 0   @ZMD0006   11700000
         AGO   .INIT                                         @ZMD0006   11750000
.TKPASS  NI    0(1),B'11011111'      INIT BIT 3 TO 0         @ZMD0006   11800000
.INIT    NI    12(1),B'01100100'     INIT BIT 1,4,5,7,8 TO O @ZMD0006   11850000
         XC    13(3,1),13(1)         INIT RESERVED FLD TO 0 @ZMD0006    11900000
         AGO   .OPTTST                                                  11950000
.EXCESSA MNOTE 0,'***     EXCESS PARAMETERS W/MF=E IGNORED'  @G38NP38   12000000
         AGO   .EROUT                                                   12050000
.SELFDEF MNOTE 12,'***     VALUE SPECIFIED FOR TOKEN IS SELF-DEFINING'  12100000
.*                                                           @G81CP2F   12150000
         MEXIT                                               @G81CP2F   12200000
.*.*.*.*.*.*.*.*.*.*.*.*.*.*.*.*.*.*.*.*.*.*.*.*.*.*.*.*.*.*.*.*        12250000
.*                                                                      12300000
.*       LIST ROUTE          MF=L                                       12350000
.*                                                                      12400000
.*.*.*.*.*.*.*.*.*.*.*.*.*.*.*.*.*.*.*.*.*.*.*.*.*.*.*.*.*.*.*.*        12450000
.LROUT   AIF   (N'&MF GT 1).EXCESS                                      12500000
.LROUT1  ANOP                                                           12550000
         AIF   ('&XCTL' EQ 'YES').XCTLIG                                12600000
.LROUT3  ANOP                                                           12650000
&FLAGS3  SETA  64*&TERMON+32*&RECON                                     12700000
         AIF   ('&BRANCH' NE '' AND '&SVEAREA' NE '').IGNORE            12750000
.LROUT2  ANOP                                                           12800000
         DS    0F                                                       12850000
         AIF   ('&TOKEN' NE '').IGNORE2                      @G81CP2F   12900000
&NAME    DC    AL1(&FLAGS)             FLAGS FOR TCB,PURGE,ASYNCH       12950000
         AGO   .LROUT5                                       @G81CP2F   13000000
.LROUT4  ANOP                                                @G81CP2F   13050000
&NAME    DC    AL1(&FLAGS4)            FLAGS FOR TCB,PURGE,ASYNCH       13100000
.*                                                           @G81CP2F   13150000
.LROUT5  ANOP                                                @G81CP2F   13200000
         AIF   ('&EXIT' NE '').LREGA                                    13250000
         DC    AL3(0)                  EXIT ADDR. NOT SPECIFIED         13300000
         AGO   .LREGB                                                   13350000
.LREGA   AIF   ('&EXIT'(1,1) EQ '(').LISTERR                            13400000
         DC    AL3(&EXIT)              STAE EXIT ROUTINE ADDR.          13450000
.LREGB   AIF   ('&PARAM' NE 'I').LREGC                                  13500000
         DC    A(0)                    PARM. LIST ADDR. NOT SPECIFIED   13550000
         AGO   .LREGD                                                   13600000
.LREGC   AIF   ('&PARAM'(1,1) EQ '(').LISTERR                           13650000
         DC    A(&PARAM)               STAE EXIT PARM. LIST ADDR.       13700000
.LREGD   AIF   ('&TCB' EQ '').LREGE                                     13750000
         AIF   ('&TCB'(1,1) EQ '(').LISTERR                             13800000
         DC    A(&TCB)                 TCB ADDRESS                      13850000
         AGO   .LREGF                                                   13900000
.LREGE   DC    A(0)                    TCB NOT SPECIFIED                13950000
.LREGF   DC    AL1(&FLAGS3)            FLAGS                            14000000
         DC    AL3(0)                  RESERVED                         14050000
         DC    A(0)                    TOKEN VALUE AREA      @G81CP2F   14100000
         MEXIT                                                          14150000
.EXCESS  MNOTE 0,'***     EXCESS PARAMETERS W/MF=L IGNORED'  @G38NP38   14200000
         AGO   .LROUT1                                                  14250000
.IGNORE  ANOP                                                           14300000
         MNOTE 0,'***    BRANCH/SVEAREA IGNORED W/MF=L'      @G38NP38   14350000
         AGO   .LROUT2                                                  14400000
.IGNORE2 ANOP                                                @G81CP2F   14450000
         MNOTE 0,'***    TOKEN IGNORED W/MF=L'               @G38NP38   14500000
         AGO   .LROUT4                                       @G81CP2F   14550000
.XCTLIG  ANOP                                                           14600000
         MNOTE 0,'***     XCTL=YES IGNORED W/MF=L'           @G38NP38   14650000
         AGO   .LROUT3                                                  14700000
.*.*.*.*.*.*.*.*.*.*.*.*.*.*.*.*.*.*.*.*.*.*.*.*.*.*.*.*.*.*.*.*        14750000
.*                                                                      14800000
.*       REGULAR ROUTE       MF=I                                       14850000
.*                                                                      14900000
.*.*.*.*.*.*.*.*.*.*.*.*.*.*.*.*.*.*.*.*.*.*.*.*.*.*.*.*.*.*.*.*        14950000
.IROUT   AIF   ('&EXIT' EQ '').NOPARM                                   15000000
         AIF   ('&EXIT' NE '0').STDA                                    15050000
.CANCEL1 ANOP                                                @ZMB0628   15100000
&NAME    DS    0H                                                       15150000
.CANCEL AIF  ('&BRANCH' EQ 'YES').BECAN                                 15200000
         AIF   ('&TOKEN' EQ '').NOTOK2                       @G81CP2F   15250000
         AIF   ('&TOKEN'(1,1) EQ '(').CAN2                   @G81CP2F   15300000
         AIF   (T'&TOKEN EQ 'N').SELFDEF                     @G81CP2F   15350000
         L     1,&TOKEN                LOAD TOKEN VALUE      @G81CP2F   15400000
         LA    0,164(0,0)              CANCEL W/TOKEN CODE   @G81CP2F   15450000
         AGO   .SVC1                                         @G81CP2F   15500000
.CAN2    LR    1,&TOKEN(1)             LOAD TOKEN VALUE      @G81CP2F   15550000
         LA    0,164(0,0)              CANCEL W/TOKEN CODE   @G81CP2F   15600000
         AGO   .SVC1                                         @G81CP2F   15650000
.NOTOK2  LA    0,132(0,0)              INDICATE CANCEL OPTION           15700000
         AGO   .SVC1                                                    15750000
.BECAN   ANOP                                                           15800000
         L     15,FLCCVT-PSA(0,0)      LOAD CVT ADDRESS                 15850000
         AIF   ('&TOKEN' EQ '').NOTOK                        @G81CP2F   15900000
         AIF   ('&TOKEN'(1,1) EQ '(').BEC2                   @G81CP2F   15950000
         AIF   (T'&TOKEN EQ 'N').SELFDEF                     @G81CP2F   16000000
         L     1,&TOKEN             LOAD TOKEN VALUE         @G81CP2F   16050000
         LA    0,180(0,0)       BR ENTRY W/TOKEN CANCEL CODE @G81CP2F   16100000
         AGO   .BRENTRY                                      @G81CP2F   16150000
.BEC2    LR    1,&TOKEN(1)          LOAD TOKEN VALUE         @G81CP2F   16200000
         LA    0,180(0,0)       BR ENTRY W/TOKEN CANCEL CODE @G81CP2F   16250000
         AGO   .BRENTRY                                      @G81CP2F   16300000
.NOTOK   LA    0,148(0,0)           BRANCH ENTRY CANCEL CODE @G81CP2F   16350000
         AGO   .BRENTRY                                                 16400000
.STDA    CNOP  0,4                     ESTAB. FULL WD. BOUND. ALIGN.    16450000
&LNAME   SETC  'IHB'.'&SYSNDX'                                          16500000
&NAME    BAL   1,*+&LENGTH             LIST ADDR IN REG1 SKIP LIST      16550000
&LNAME   EQU   *                                                        16600000
         AIF   ('&EXIT'(1,1) EQ '(').EREG1                              16650000
         DC    AL1(&FLAGS)             FLAGS FOR TCB, PURGE, ASYNCH     16700000
         DC    AL3(&EXIT)              STAE EXIT ROUTINE ADDR.          16750000
         AGO   .STDB                                                    16800000
.EREG1   DC    A(0)                    SPACE FOR STAE EXIT RTN ADDRESS  16850000
.STDB    ANOP                                                           16900000
         AIF   ('&PARAM' EQ 'I' OR '&PARAM'(1,1) EQ '(').STDC1          16950000
         DC    A(&PARAM)               STAE EXIT PARM. LIST ADDR.       17000000
         AGO   .TCBTST                                                  17050000
.STDC1   DC    A(0)                    SPACE FOR PARM LIST ADDR         17100000
.TCBTST  ANOP                                                           17150000
         AIF   ('&TCB' EQ '').TCBREG                                    17200000
         AIF   ('&TCB'(1,1) EQ '(').TCBREG                              17250000
         DC    A(&TCB)                 TCB ADDR                         17300000
         DC    AL1(&FLAGS2)            FLAGS FOR TERM AND RECORD        17350000
         DC    AL3(0)                  RESERVED                         17400000
         DC    A(0)                    SPACE FOR TOKEN       @G81CP2F   17450000
         AIF   ('&TOKEN' EQ '').TSTSW                        @G81CP2F   17500000
         AIF   ('&TOKEN'(1,1) EQ '(').TOKREG                 @G81CP2F   17550000
         AIF   (T'&TOKEN EQ 'N').SELFDEF                     @G81CP2F   17600000
         AIF   ('&TYPE' NE 'OV').TSTSW                       @G81CP2F   17650000
         L     0,&TOKEN                LOAD TOKEN VALUE      @G81CP2F   17700000
         ST    0,&LNAME+16             PUT TOKEN IN LIST     @G81CP2F   17750000
         AGO   .TSTSW                                        @G81CP2F   17800000
.TOKREG  ANOP                                                @G81CP2F   17850000
         AIF   ('&TYPE' NE 'OV').TSTSW                       @G81CP2F   17900000
         ST    &TOKEN(1),&LNAME+16     PUT TOKEN IN LIST     @G81CP2F   17950000
         AGO   .TSTSW                                                   18000000
.TCBREG  DC    A(0)                    SPACE FOR TCB ADDR               18050000
         DC    AL1(&FLAGS2)            FLAGS FOR TERM AND RECORD        18100000
         DC    AL3(0)                  RESERVED                         18150000