*%/*                                                                    00050000
         MACRO                                                          00150000
&NAME    ETDEF &TYPE=,             INITIAL | ENTRY | SET | FINAL       *00200000
               &AKM=,              Authorization Key Mask              *00250000
               &ARR=,              Associated Recovery Routine Address *00300000
               &ASCMODE=,          PRIMARY | AR                        *00350000
               &ASYNCH=,           YES | NO                        @L2A*00366600
               &CANCEL=,           YES | NO                        @L2A*00383200
               &EAX=,              Extended Authorization index        *00400000
               &EK=,               Entry Key                           *00450000
               &EKM=,              Entry Key Mask                      *00500000
               &ETEADR=,           ENTRY address/name                  *00550000
               &HEADER=,           HEADER address/name                 *00600000
               &NUMETE=,           Number of entries                   *00650000
               &PARM1=,            User parameter 1                    *00700000
               &PARM2=,            User parameter 2                    *00750000
               &PC=,               STACKING | BASIC                    *00800000
               &PKM=,              OR | REPLACE                        *00850000
               &PROGRAM=,          Program name                        *00900000
               &RECORD=,           YES | NO                        @01A*00925000
               &ROUTINE=,          Routine address                     *00950000
               &RAMODE=,           Routine address AMODE           @D2A*00975000
               &SASN=,             OLD | NEW                           *01000000
               &SSWITCH=,          NO | YES  XM Space Switch           *01050000
               &STATE=,            PROBLEM | SUPERVISOR                *01100000
               &RELATED=           Any value                            01150000
         AGO   .SKIP                                                 */ 01200000
*/****  START OF SPECIFICATIONS  *************************************/ 01250000
*/*                                                                  */ 01300000
*/*01*  MACRO NAME = ETDEF                                           */ 01350000
*/*                                                                  */ 01400000
*/*01*  DESCRIPTIVE NAME = Entry Table Definition                    */ 01450000
*/*                                                                  */ 01500000
*/*01*  COPYRIGHT=                                                   */ 01550000
*/*         5685-001                                                 */ 01600000
*/*         THIS MACRO IS "RESTRICTED MATERIALS OF IBM"              */ 01650000
*/*         (C) COPYRIGHT IBM CORP. 1988                             */ 01700000
*/*         LICENSED MATERIALS - PROPERTY OF IBM                     */ 01750000
*/*                                                                  */ 01900000
*/*01*  STATUS =  HBB4430                                        @L2C*/ 01950000
*/*                                                                  */ 02000000
*/*01*  FUNCTION =                                                   */ 02050000
*/*       Define or set entry table entries.                         */ 02100000
*/*       ETDEF will create a FORMAT=1 Entry Table Descriptor        */ 02150000
*/*       or reset lists of entry table descriptors that will        */ 02200000
*/*       be used as input to the Entry Table Create process.        */ 02250000
*/*                                                                  */ 02300000
*/*02*    OPERATION =                                                */ 02350000
*/*         The ETDEF macro parses the keywords according to         */ 02400000
*/*         the TYPE parameter.  It will either initialize or        */ 02450000
*/*         set entries for the entry table entry.                   */ 02500000
*/*                                                                  */ 02550000
*/*         In the event of an error, syntax checking will attempt   */ 02600000
*/*         to continue for the remainder of the input. No data      */ 02650000
*/*         will be generated.                                       */ 02700000
*/*                                                                  */ 02750000
*/*01*  INPUT =  (BAL)                                               */ 02800000
*/*        TYPE=            INITIAL | ENTRY | FINAL | SET            */ 02850000
*/*                          Required, no default                    */ 02900000
*/*                                                                  */ 02950000
*/*               INITIAL  Specifies that an entry table descriptor  */ 03000000
*/*                        list is starting. The header for the      */ 03050000
*/*                        list will be generated.                   */ 03100000
*/*               ENTRY    Specifies that an entry table descriptor  */ 03150000
*/*                        is to be generated. Each entry in the     */ 03200000
*/*                        list must be within the scope of an       */ 03250000
*/*                        INITIAL - FINAL pair.                     */ 03300000
*/*               FINAL    Specifies that the entry table descriptor */ 03350000
*/*                        list is complete.                         */ 03400000
*/*               SET      Specifies that an entry table descriptor  */ 03450000
*/*                        or header is to be initialized or reset.  */ 03500000
*/*                                                                  */ 03550000
*/*                                                                  */ 03600000
*/*02*   INPUT when TYPE is INITIAL or FINAL                         */ 03650000
*/*                                                                  */ 03700000
*/*           ,RELATED=     Any value                                */ 03750000
*/*                                                                  */ 03800000
*/*                                                                  */ 03850000
*/*02*   INPUT when TYPE is ENTRY                                    */ 03900000
*/*                                                                  */ 03950000
*/*       ,AKM=             Authorization Key Mask. Required.        */ 04000000
*/*                          The AKM can be a single number or pair  */ 04050000
*/*                          of numbers (low:high) separated by a    */ 04100000
*/*                          colon to indicate a range. Multiple     */ 04150000
*/*                          ranges may be specified and parenthesis */ 04200000
*/*                          are optional.  Example:                 */ 04250000
*/*                             AKM=(2,(3),5:8,(10:12),15)  would    */ 04300000
*/*                             result in: B'0011011110111001'       */ 04350000
*/*                             or decimal: 14265.                   */ 04400000
*/*       ,PROGRAM=       1 Program name. Character string of        */ 04500000
*/*                          maximum length 8, optionally enclosed   */ 04550000
*/*                          in single quotation marks.              */ 04600000
*/*       ,ROUTINE=       1 Routine address. A-type address.         */ 04650000
*/*                                                                  */ 04700000
*/*           ,ARR=         Associated Recovery Routine Address.     */ 04750000
*/*           ,ASCMODE=     PRIMARY | AR                             */ 04800000
*/*           ,ASYNCH=,     YES | NO  Valid only with ARR            */ 04816600
*/*           ,CANCEL=,     YES | NO  Valid only with ARR (See NOTES)*/ 04833200
*/*           ,EAX=         Extended Authorization index. Halfword   */ 04850000
*/*                          decimal value (self-defining term).     */ 04900000
*/*           ,EK=          Entry Key. Decimal number or constant    */ 04950000
*/*                          from 0 -15.                             */ 05000000
*/*           ,EKM=         Entry Key Mask. See AKM. Required when   */ 05016600
*/*                          PKM=REPLACE.                            */ 05033200
*/*           ,PARM1=       User parameter 1. A-type address or      */ 05050000
*/*                          character string of maximum length 4,   */ 05100000
*/*                          enclosed in single quotation marks.     */ 05150000
*/*           ,PARM2=       User parameter 2. See PARM1              */ 05200000
*/*           ,PC=          STACKING | BASIC                         */ 05250000
*/*           ,PKM=         OR | REPLACE                             */ 05300000
*/*           ,RAMODE=      31 | 24  Valid only with ROUTINE.        */ 05325000
*/*           ,SASN=        OLD | NEW                                */ 05350000
*/*           ,SSWITCH=     NO | YES                                 */ 05400000
*/*           ,STATE=       PROBLEM | SUPERVISOR                     */ 05450000
*/*           ,RELATED=     Any value                                */ 05500000
*/*                                                                  */ 05550000
*/*                                                                  */ 05600000
*/*02*   INPUT when TYPE is SET and HEADER is to be changed          */ 05650000
*/*                                                                  */ 05700000
*/*       ,HEADER=          HEADER name. RX-address or register      */ 05750000
*/*                          (1) - (15).                             */ 05800000
*/*       ,NUMETE=          Number of entries.  Symbol, decimal      */ 05850000
*/*                          number (1 to 128), or register.         */ 05900000
*/*           ,RECORD=      YES | NO.   INTERNAL USE ONLY.           */ 05916600
*/*                                                                  */ 05933200
*/*           ,RELATED=     Any value                                */ 05950000
*/*                                                                  */ 06000000
*/*                                                                  */ 06050000
*/*02*   INPUT when TYPE is SET and ETEADR is to be changed          */ 06100000
*/*                                                                  */ 06150000
*/*       ,ETEADR=          ENTRY name. RX-address or register       */ 06200000
*/*                          (1) - (15).                             */ 06250000
*/*       ,AKM=             Authorization Key Mask. Required.        */ 06300000
*/*                          The AKM can be a single number or pair  */ 06350000
*/*                          of numbers (low:high) separated by a    */ 06400000
*/*                          colon to indicate a range. Multiple     */ 06450000
*/*                          ranges may be specified and parenthesis */ 06500000
*/*                          are optional.  Example:                 */ 06550000
*/*                             AKM=(2,(3),5:8,(10:12),15)  would    */ 06600000
*/*                             result in: B'0011011110111001'       */ 06650000
*/*                             or decimal: 14265.                   */ 06700000
*/*       ,PROGRAM=       1 Program name. Character string of        */ 06800000
*/*                          maximum length 8, optionally enclosed   */ 06850000
*/*                          in single quotation marks.              */ 06900000
*/*       ,ROUTINE=       1 Routine address. A-type address or       */ 06950000
*/*                          register.                               */ 07000000
*/*                                                                  */ 07050000
*/*           ,ARR=         Associated Recovery Routine Address.     */ 07100000
*/*                          A-type address or register, or quoted   */ 07150000
*/*                          character string of maximum length 8.   */ 07200000
*/*           ,ASCMODE=     PRIMARY | AR                             */ 07250000
*/*           ,ASYNCH=,     YES | NO  Valid only with ARR            */ 07266600
*/*           ,CANCEL=,     YES | NO  Valid only with ARR (See NOTES)*/ 07283200
*/*           ,EAX=         Extended Authorization index.            */ 07300000
*/*                          Halfword decimal value, or register.    */ 07350000
*/*           ,EK=          Entry Key. Decimal number or constant    */ 07400000
*/*                          from 0 -15.                             */ 07450000
*/*           ,EKM=         Entry Key Mask. See AKM. Required when   */ 07466600
*/*                          PKM=REPLACE.                            */ 07483200
*/*           ,PARM1=       User parameter 1. A-type address or      */ 07500000
*/*                          character string of maximum length 4,   */ 07550000
*/*                          enclosed in single quotation marks.     */ 07600000
*/*                          Register form may contain data.         */ 07650000
*/*           ,PARM2=       User parameter 2. See PARM1              */ 07700000
*/*           ,PC=          STACKING | BASIC                         */ 07750000
*/*           ,PKM=         OR | REPLACE                             */ 07800000
*/*           ,RAMODE=      31 | 24  Valid only with ROUTINE.        */ 07825000
*/*           ,SASN=        OLD | NEW                                */ 07850000
*/*           ,SSWITCH=     NO | YES                                 */ 07900000
*/*           ,STATE=       PROBLEM | SUPERVISOR                     */ 07950000
*/*           ,RELATED=     Any value                                */ 08000000
*/*                                                                  */ 08050000
*/*03*    NOTES =                                                    */ 08100000
*/*         -  The following are not valid with PC=BASIC:            */ 08150000
*/*             ARR, ASCMODE=AR, ASYNCH, CANCEL, EAX, EK,            */ 08200000
*/*             PKM=REPLACE, SASN=NEW                                */ 08250000
*/*         -  Mutually exclusive keywords are noted numerically.    */ 08300000
*/*         -  Default options are listed first. If a default is     */ 08350000
*/*            is not listed, the parameter will be given a value    */ 08400000
*/*            of zero.                                              */ 08450000
*/*         -  The EKM is required when STATE=PROBLEM and the EK     */ 08457100
*/*            is specified.                                         */ 08464200
*/*         -  When CANCEL=NO is specified, the PC routine must be   */ 08471300
*/*            in supervisor state (STATE=SUPERVISOR), or the EKM    */ 08478400
*/*            must contain a system key, or the AKM can only have   */ 08485500
*/*            system keys and PKM=OR.                               */ 08492600
*/*         -  If explicit register notation is specified, only      */ 08500000
*/*            registers (2) through (12) may be used, unless        */ 08550000
*/*            noted otherwise.                                      */ 08600000
*/*                                                                  */ 08650000
*/*                                                                  */ 08700000
*/*01*  NOTES =                                                      */ 08750000
*/*                                                                  */ 08800000
*/*02*    RESTRICTIONS = None                                        */ 08850000
*/*                                                                  */ 08900000
*/*02*    DEPENDENCIES =                                             */ 08950000
*/*                      If the offsets in the IHAETD mapping        */ 09000000
*/*                      macro change, the SETA symbols defined      */ 09050000
*/*                      under 'IHAETD offsets' in the BAL source    */ 09100000
*/*                      must also be changed respectively.          */ 09150000
*/*                                                                  */ 09200000
*/*03*      CHARACTER-CODE DEPENDENCIES= EBCDIC                      */ 09250000
*/*                                                                  */ 09300000
*/*01*  MODULE TYPE = BIL MACRO                                      */ 09350000
*/*                                                                  */ 09400000
*/*02*    PROCESSOR = ASSEMBLER-H  or  PLAS                          */ 09450000
*/*                                                                  */ 09500000
*/*02*    INVOCATION = See MACRO definition                          */ 09550000
*/*                                                                  */ 09600000
*/*01*  COMPONENT  =  SCXMS (PC/AUTH)                                */ 09650000
*/*                                                                  */ 09700000
*/*01*  DISTRIBUTION LIBRARY = AMACLIB                               */ 09750000
*/*                                                                  */ 09800000
*/**** END OF SPECIFICATIONS *****************************************/ 09850000
*/*                                                                     09900000
.*                                                                      09950000
.*   CHANGE ACTIVITY =                                                  10000000
.*      $L0=AR      HBB3310 851118 PD16LD: Access Registers             10050000
.*      $D1=DCR0006 HBB3310 851118 PD16LD: ARR in quotes                10055000
.*      $P1=PC40037 HBB3310 860404 PD16LD: Inconsistent error checking  10067500
.*                                         with PLAS version            10080000
.*      $P2=PC40042 HBB3310 860404 PD16LD: Null sublist is processed    10090000
.*      $P3=PC40157 HBB3310 860825 PD16LD: Change MNOTE text            89668400
.*      $P4=PC40345 HBB3310 861020 PD16LD: Negative EK value            89671600
.*      $L1=AR      HBB3310 870406 PD16LD: Access Registers             89672400
.*      $D2=DCR0248 HBB3310 870406 PD16LD: Make EKM optional and add    89673200
.*                                         RAMODE keyword               89674000
.*      $P5=PC41695 HBB3310 871123 PD16LD: EAX default is 0, not loc 0  89674400
.*      $L2=ARREN   JBB3311 880418 PD16LD: ARR Enhancement              89675500
.*      $D3=DCR0012 JBB3311 880418 PD16LD: EKM required with EK when    89676600
.*                                         STATE=PROBLEM                89677700
.*      $D4=DCR0014 JBB3311 880418 PD16LD: Check AKM with CANCEL=NO     89678800
.*      $01=OY55354 HBB4430 920625 PD16EJ: Add RECORD keyword           89679300
.*                                                                      89679900
.********************************************************************** 89681200
.*                                                                      89687600
.SKIP    ANOP ,                                                         89694000
*        MACDATE  06/25/92                                              89700400
.*                                                                      89706800
.********************************************************************** 89713200
.*                                                                    * 89719600
.*       Declare GLOBAL and LOCAL variables                           * 89726000
.*                                                                    * 89732400
.********************************************************************** 89738800
.*                                                                      89745200
         GBLA  &IHAETDI       LIST counter                              89751600
         GBLC  &IHAETDN       LIST name                                 89758000
.*                                                                      89764400
         LCLA  &AKMV          AKM - Decimal value                       89770800
         LCLC  &AMOD          OI or NI the AMODE qualifier         @D2A 89774000
         LCLC  &ARRV          Associated Recovery Routine address       89777200
         LCLA  &AWK           Arithmetic work variable                  89783600
         LCLA  &COLN          Colon used but no parens (range value)    89790000
         LCLC  &CWK           Character work variable                   89796400
         LCLC  &CWK1          Character work variable              @01A 89799600
         LCLA  &DECVAL        Decimal work variable                     89802800
         LCLC  &EAXV          Extended Authorization Index              89809200
         LCLB  &AKMUSER       AKM specified a user key (flag)      @D4A 89811300
         LCLB  &EKMSYS        EKM specified a system key (flag)    @L2A 89813400
         LCLA  &EKMV          EKM - Decimal value                       89815600
         LCLC  &EKV           Entry Key value                           89822000
         LCLC  &EM(20)        General error messages                    89828400
         LCLC  &ENTV          ENTRY name (ETEADR or HEADER)             89834800
         LCLA  &ER1           Entry register low bound (ETEADR,HEADER)  89841200
         LCLA  &ER2           Entry register high bound (ETEADR,HEADER) 89847600
         LCLA  &FBYTE         FLAG byte                                 89854000
         LCLA  &FBSUP,&FBXMSS  FLAG byte settings                       89860400
         LCLB  &IHBBIT(16)    Bit array                                 89866800
         LCLA  &IHBBITL       Length of bit array &IHBBIT               89873200
         LCLB  &IHBERR        Error flag                                89879600
         LCLC  &KEYS1(22)     Keywords invalid with INITIAL,FINAL  @01C 89880200
         LCLC  &KEYN1(22)     Keyword names for &KEYS1             @01C 89880800
         LCLA  &K1SIZE        Dimension of &KEYS1 and &KEYN1       @L1A 89881400
         LCLC  &KEYS2(19)     Keywords invalid with HEADER         @L2C 89882000
         LCLC  &KEYN2(19)     Keyword names for &KEYS2             @L2C 89882600
         LCLA  &K2SIZE        Dimension of &KEYS2 and &KEYN2       @L1A 89883200
         LCLC  &KEYS4(4)      Keywords invalid with TYPE=ENTRY     @01C 89883800
         LCLC  &KEYN4(4)      Keyword names for &KEYS4             @01C 89884400
         LCLA  &K4SIZE        Dimension of &KEYS4 and &KEYN4       @L1A 89885000
         LCLC  &KEYS5(8)      Keywords invalid with PC=BASIC       @L2A 89885200
         LCLC  &KEYN5(8)      Keyword names for &KEYS5             @L2A 89885400
         LCLA  &K5SIZE        Dimension of &KEYS5 and &KEYN5       @L2A 89885600
         LCLA  &L1            Lower bound                               89886000
         LCLA  &L2            Upper bound                               89892400
         LCLA  &LPAFB1        Flag for LPA, byte 1                 @L2A 89894000
         LCLA  &LPA1CAN         LPA Flag  CANCEL option for ARR    @L2A 89895600
         LCLA  &LPA1ASY         LPA Flag  ASYNCH option for ARR    @L2A 89897200
         LCLA  &NDX           Substring index                           89898800
         LCLC  &NUMV          NUMETE value                              89905200
         LCLA  &OBYTE         OPTION byte                               89911600
         LCLA  &OBPCTC,&OBPKC   OPTION byte settings                    89918000
         LCLA  &OBPKMC,&OBEAXC  OPTION byte settings                    89924400
         LCLA  &OBASC,&OBSASN   OPTION byte settings                    89930800
         LCLA  &PAREN         Parenthesis used                          89937200
         LCLC  &PARM1V        USER parameter 1                          89943600
         LCLC  &PARM2V        USER parameter 2                          89950000
         LCLC  &PGM           PROGRAM NAME                              89956400
         LCLC  &RANGE(2)      Lower/upper range values                  89962800
         LCLC  &RTNV          ROUTINE address                           89967000
         LCLC  &RTNAMOD       AMODE for register form of ROUTINE   @D2A 89971200
         LCLA  &RVAL          Range value pointer                       89975600
         LCLA  &R1            Register usage lower bound                89982000
         LCLA  &R2            Register usage upper bound                89988400
         LCLA  &SUB           Sublist element number                    89994800
         LCLA  &SYSKEY        Highest system key                   @L2A 89996900
         LCLA  &USERKEY       Highest user key                     @L2A 89999000
         LCLC  &VALUE         Sublist element                           90001200
.*                                                                      90007600
.********************************************************************** 90014000
.*       Declares for IHAETD offsets and lengths                      * 90020400
.********************************************************************** 90026800
.*                                                                      90033200
         LCLA  &ETDFMT        Offset to FORMAT NUMBER                   90039600
         LCLA  &ETDFMTE       Extended format indicator                 90046000
         LCLA  &ETDRCRD       Record=YES|NO indicator              @01A 90049200
         LCLA  &ETDNUM        Offset to NUMBER OF ENTRIES               90052400
.*                                                                      90058800
         LCLA  &ETDFLG        Offset to FLAG BYTE                       90065200
         LCLA  &ETDPRO        Offset to PROGRAM name                    90071600
         LCLA  &ETDPRO1       Offset to first word of ETDPRO            90078000
         LCLA  &ETDPRO2       Offset to second word of ETDPRO           90084400
         LCLA  &ETDAKM        Offset to AKM                             90090800
         LCLA  &ETDEKM        Offset to EKM                             90097200
         LCLA  &ETDPAR        Offset to PARM1                           90103600
         LCLA  &ETDOPT1       Offset to OPTION BYTE 1                   90110000
         LCLA  &ETDEK         Offset to EK                              90116400
         LCLA  &ETDEAX        Offset to EAX                             90122800
         LCLA  &ETDARR        Offset to ARR                             90129200
         LCLA  &ETDARR1       Offset to first word of ETDARR            90135600
         LCLA  &ETDARR2       Offset to second word of ETDARR           90142000
         LCLA  &ETDPAR2       Offset to PARM2                           90148400
         LCLA  &ETDLPA1       Offset to LPA FLAG BYTE 1            @L2A 90151600
.*                                                                      90154800
         LCLA  &ETDNUML       Length of NUMBER OF ENTRIES               90161200
         LCLA  &ETDPROL       Length of PROGRAM name                    90167600
         LCLA  &ETDPR1L       Length of first word of ETDPRO            90174000
         LCLA  &ETDPR2L       Length of second word of ETDPRO           90180400
         LCLA  &ETDAKML       Length of AKM                             90186800
         LCLA  &ETDEKML       Length of EKM                             90193200
         LCLA  &ETDPA1L       Length of PARM1                           90199600
         LCLA  &ETDEAXL       Length of EAX                             90206000
         LCLA  &ETDARRL       Length of ARR                             90212400
         LCLA  &ETDAR1L       Length of first word of ETDARR            90218800
         LCLA  &ETDAR2L       Length of second word of ETDARR           90225200
         LCLA  &ETDPA2L       Length of PARM2                           90231600
.*                                                                      90238000
.********************************************************************** 90244400
.*                                                                    * 90250800
.*       IHAETD offsets       These SETs should not be changed        * 90257200
.*                            unless the offsets in the IHAETD        * 90263600
.*                            mapping macro have been changed.        * 90270000
.*                                                                    * 90276400
.********************************************************************** 90282800
.*                                                                      90289200
&ETDFMT  SETA    0            Offset to FORMAT NUMBER                   90295600
&ETDFMTE SETA    1            Extended format indicator                 90302000
&ETDRCRD SETA    0            Record=NO indicator                  @01A 90304100
&ETDRCO  SETA    1            Offset to Header Flag Byte           @01A 90306200
&ETDNUM  SETA    2            Offset to NUMBER OF ENTRIES               90308400
.*                                                                      90314800
&ETDFLG  SETA    1            Offset to FLAG BYTE                       90321200
&ETDPRO  SETA    4            Offset to PROGRAM name                    90327600
&ETDPRO1 SETA    4            Offset to first word of ETDPRO            90334000
&ETDPRO2 SETA    8            Offset to second word of ETDPRO           90340400
&ETDAKM  SETA   12            Offset to AKM                             90346800
&ETDEKM  SETA   14            Offset to EKM                             90353200
&ETDPAR  SETA   16            Offset to PARM1                           90359600
&ETDOPT1 SETA   20            Offset to OPTION BYTE 1                   90366000
&ETDEK   SETA   21            Offset to EK                              90372400
&ETDEAX  SETA   22            Offset to EAX                             90378800