* /* START OF SPECIFICATIONS****                                        00050000
*01*  MODULE-NAME = EVENTS7                                             00100000
*01*  DESCRIPTIVE-NAME = FAST MULTIPLE WAIT USER MACRO                  00150000
*01*  COPYRIGHT = 5740-XC6 COPYRIGHT IBM CORP. 1981,                    00200000
*                 LICENSED MATERIAL-PROGRAM, PROPERTY OF IBM,           00250000
*                 REFER TO COPYRIGHT INSTRUCTIONS FORM G120-2083.       00300000
*01*  STATUS = OS/VS2 HBB2102                                           00350000
*01*  FUNCTION = DOWNWARD COMPATIBLE VERSION OF THE EVENTS MACRO        00400000
*                (EQUIVALENT TO THE JBB1326 LEVEL).                     00450000
*01*  PROCESSOR = ASSEM                                                 00500000
*01*  CHANGE ACTIVITY =                                                 00550000
*        @G860PXZ - HBB2102 SUPPORT                                     00600000
**** END OF SPECIFICATIONS ***/                                         00650000
         MACRO                                                          00700000
&NAME    EVENTS7 &ENTRIES=,&TABLE=,&WAIT=,&LAST=,&ECB=,&BRANCH=NO       00750000
.*                                                             @Y30HPVA 00800000
.*                                                             @X31ED32 00850000
.*A000000-999999                                               @G860PXZ 00900000
         LCLA  &X                                              @X31ED32 00950000
         LCLB  &B(7)                                           @X30HPVA 01000000
         LCLC  &C(7),&PCHAR                                    @X30HPVA 01050000
.*                                                             @X31ED32 01100000
&B(1)    SETB  (('&ENTRIES' NE '') AND ('&ENTRIES' NE 'DEL'))  @X31ED32 01150000
&B(2)    SETB  ('&ENTRIES' EQ 'DEL')                           @X31ED32 01200000
&B(3)    SETB  ('&WAIT' NE '')                                 @X31ED32 01250000
&B(4)    SETB  ('&TABLE' NE '')                                @X31ED32 01300000
&B(5)    SETB  ('&LAST' NE '')                                 @X31ED32 01350000
&B(6)    SETB  ('&ECB' NE '')                                  @X31ED38 01400000
&B(7)    SETB  ('&BRANCH' NE 'NO')                             @Y30HPVA 01450000
.*                                                             @X31ED32 01500000
&C(3)    SETC  'WAIT'                                          @X31ED32 01550000
&C(4)    SETC  'TABLE'                                         @X31ED32 01600000
&C(5)    SETC  'LAST'                                          @X31ED32 01650000
&C(6)    SETC  'ECB'                                           @X31ED38 01700000
&C(7)    SETC  'BRANCH=YES'                                    @Y30HPVA 01750000
.*                                                             @X31ED32 01800000
.************************************************************* @X31ED32 01850000
.*                                                           * @X31ED32 01900000
.****       CHECK FOR MUTUALLY EXCLUSIVE PARAMETERS        *** @X31ED32 01950000
.*                                                           * @X31ED32 02000000
.************************************************************* @X31ED32 02050000
.*                                                             @X31ED32 02100000
&X       SETA  3                                               @X31ED32 02150000
.EVLOOP1 ANOP                                                  @X31ED32 02200000
         AIF   (&B(1) AND &B(&X)).ERROR1                       @X31ED32 02250000
&X       SETA  &X+1                                            @X31ED32 02300000
         AIF   (&X LE 7).EVLOOP1                               @X30HPVA 02350000
         AIF   (&B(2) AND &B(3)).ERROR2                        @X31ED32 02400000
         AIF   (&B(2) AND &B(5)).ERROR3                        @X31ED32 02450000
         AIF   (&B(2) AND &B(6)).ERROR8                        @X31ED38 02500000
         AIF   (&B(2) AND &B(7)).ERROR10                       @Y30HPVA 02550000
         AIF   (&B(5) AND &B(6)).ERROR7                        @X31ED38 02600000
.*                                                             @X31ED32 02650000
.************************************************************* @X31ED32 02700000
.*                                                           * @X31ED32 02750000
.****      CHECK FOR INCOMPLETE PARAMETER COMBINATIONS     *** @X31ED32 02800000
.*                                                           * @X31ED32 02850000
.************************************************************* @X31ED32 02900000
.*                                                             @X31ED32 02950000
         AIF   (&B(4) AND NOT(&B(2) OR &B(3) OR &B(6))).ERROR4 @X31ED38 03000000
         AIF   (&B(3) AND NOT (&B(4))).ERROR4                  @X31ED38 03050000
         AIF   (&B(5) AND NOT (&B(4))).ERROR4                  @X31ED38 03100000
         AIF   (&B(6) AND NOT (&B(4))).ERROR4                  @X31ED38 03150000
         AIF   (NOT(&B(1) OR &B(4))).ERROR4                    @X31ED38 03200000
.*                                                             @X31ED32 03250000
.************************************************************* @X31ED32 03300000
.*                                                           * @X31ED32 03350000
.****         CHECK FOR INVALID SINGLE PARAMETERS          *** @X31ED32 03400000
.*                                                           * @X31ED32 03450000
.************************************************************* @X31ED32 03500000
.*                                                             @X31ED32 03550000
         AIF   (T'&ENTRIES NE 'N').EV01                        @X31ED32 03600000
         AIF   ('&ENTRIES'(1,1) EQ '(').EV01                   @X31ED32 03650000
         AIF   ((&ENTRIES LT 1) OR (&ENTRIES GT 32767)).ERROR5 @X31ED38 03700000
         AGO   .EV10                                           @X31ED32 03750000
.EV01    ANOP                                                  @X31ED32 03800000
         AIF   (&B(7) AND ('&BRANCH' NE 'YES')).ERROR9         @Y30HPVA 03850000
         AIF   (NOT &B(3)).EV10                                @X31ED32 03900000
         AIF   (('&WAIT' NE 'YES') AND ('&WAIT' NE 'NO')).ERR6 @X31ED32 03950000
.*                                                             @X31ED32 04000000
.EV10    ANOP                                                  @X31ED32 04050000
&NAME    CNOP  0,4                                             @Y30HPVA 04100000
         AIF   (&B(1)).EVCREAT         CHECK FOR CREATE REQUEST@X31ED32 04150000
.*                                                             @X31ED32 04200000
.************************************************************* @X31ED32 04250000
.*                                                           * @X31ED32 04300000
.****   GENERATE CODE TO INITIALIZE REG 1 WITH TABLE ADR   *** @X31ED32 04350000
.*                                                           * @X31ED32 04400000
.************************************************************* @X31ED32 04450000
.*                                                             @X31ED32 04500000
         AIF   ('&TABLE'(1,1) EQ '(').EV20                     @X31ED32 04550000
         L     1,&TABLE                LOAD TABLE ADDRESS      @X31ED32 04600000
         AGO   .EV25                                           @X31ED32 04650000
.EV20    ANOP                                                  @X31ED32 04700000
         AIF   ('&TABLE(1)' EQ '1').EV25                       @X31ED32 04750000
         LR    1,&TABLE(1)             LOAD TABLE ADDRESS      @X31ED32 04800000
.EV25    ANOP                                                  @X31ED32 04850000
.*                                                             @X31ED32 04900000
         AIF   (&B(2)).EVDELET         CHECK FOR DELETE REQUEST@X31ED32 04950000
.*                                                             @X31ED32 05000000
.************************************************************* @X31ED32 05050000
.*                                                           * @X31ED32 05100000
.****         GENERATE REG 0 INPUT FOR TYPE 1 SVC          *** @X31ED32 05150000
.*                                                           * @X31ED32 05200000
.************************************************************* @X31ED32 05250000
.*                                                             @X31ED32 05300000
         AIF   (&B(5)).EV30            CHECK FOR LAST SPECIFIED@X31ED32 05350000
         AIF   (NOT &B(6)).EV29D       BRANCH IF NOT ECB       @X31ED38 05400000
         AIF   ('&ECB'(1,1) EQ '(').EV29                       @X31ED38 05450000
         L     0,&ECB                  LOAD ECB ADDR           @X31ED38 05500000
         AGO   .EV29A                                          @X31ED38 05550000
.EV29    ANOP                                                  @X31ED38 05600000
         AIF   ('&ECB(1)' EQ '0').EV29A                        @X31ED38 05650000
         LR    0,&ECB(1)               LOAD ECB ADDR           @X31ED38 05700000
.EV29A   ANOP                                                  @X31ED38 05750000
         AIF   ('&WAIT' EQ 'NO').EV29B                         @X31ED38 05800000
         AIF   ('&WAIT' EQ 'YES').EV29C                        @X31ED38 05850000
         B     *+6                     BRANCH AROUND CONSTANT  @X31ED38 05900000
         DC    X'2000'                 ECB CONSTANT            @X31ED38 05950000
         ICM   0,8,*-2                 INDICATE ECB            @X31ED38 06000000
         AGO   .EVTYP1                                         @X31ED38 06050000
.EV29B   ANOP                                                  @X31ED38 06100000
         B     *+6                     BRANCH AROUND CONSTANT  @X31ED38 06150000
         DC    X'6000'                 CONST FOR ECB, NO WAIT  @X31ED38 06200000
         ICM   0,8,*-2                 INDICATE ECB, NO WAIT   @X31ED38 06250000
         AGO   .EVTYP1                                         @X31ED38 06300000
.EV29C   ANOP                                                  @X31ED38 06350000
         B     *+6                     BRANCH AROUND CONSTANT  @X31ED38 06400000
         DC    X'A000'                 CONSTANT FOR ECB, WAIT  @X31ED38 06450000
         ICM   0,8,*-2                 INDICATE ECB, WAIT      @X31ED38 06500000
         AGO   .EVTYP1                                         @X31ED38 06550000
.EV29D   ANOP                                                  @X31ED38 06600000
         AIF   ('&WAIT' EQ 'NO').EV28  CHECK FOR WAIT=NO       @X31ED32 06650000
         LA    0,1(,0)                 INDICATE WAIT           @X31ED38 06700000
         SLL   0,31(0)                                         @X31ED38 06750000
         AGO   .EVTYP1                 GO TO ISSUE SVC         @X31ED32 06800000
.*                                                             @X31ED32 06850000
.EV28    ANOP                                                  @X31ED32 06900000
         LA    0,1(,0)                                         @X31ED32 06950000
         SLL   0,30(0)                 NO WAIT, NO LAST        @X31ED32 07000000
         AGO   .EVTYP1                 GO TO ISSUE SVC         @X31ED32 07050000
.*                                                             @X31ED32 07100000
.EV30    ANOP                                                  @X31ED32 07150000
         AIF   ('&LAST'(1,1) EQ '(').EV35                      @X31ED32 07200000
         L     0,&LAST                 LOAD LAST ADDRESS       @X31ED32 07250000
         AGO   .EV40                                           @X31ED32 07300000
.EV35    ANOP                                                  @X31ED32 07350000
         AIF   ('&LAST(1)' EQ '0').EV40  ALREADY IN REG 0      @X31ED32 07400000
         LR    0,&LAST(1)              LOAD LAST ADDRESS       @X31ED32 07450000
.EV40    ANOP                                                  @X31ED32 07500000
         AIF   ('&WAIT' EQ 'NO').EV45                          @X31ED32 07550000
         B     *+6                     BRANCH AROUND CONSTANT  @X31ED38 07600000
         DC    X'8000'                 CONSTANT FOR WAIT       @X31ED38 07650000
         ICM   0,8,*-2                 INDICATE WAIT           @X31ED38 07700000
         AGO   .EVTYP1                 GO TO ISSUE SVC         @X31ED32 07750000
.EV45    ANOP                                                  @X31ED32 07800000
         B     *+6                     BRANCH AROUND CONSTANT  @X31ED32 07850000
         DC    X'4000'                 NO WAIT CONSTANT        @X31ED32 07900000
         ICM   0,8,*-2                 INDICATE NO WAIT        @X31ED32 07950000
         AGO   .EVTYP1                                         @X31ED32 08000000
.*                                                             @X31ED32 08050000
.************************************************************* @X31ED32 08100000
.*                                                           * @X31ED32 08150000
.****    INITIALIZE REGS 0 AND 1 FOR ENTRIES=N REQUEST     *** @X31ED32 08200000
.*                                                           * @X31ED32 08250000
.************************************************************* @X31ED32 08300000
.*                                                             @X31ED32 08350000
.EVCREAT ANOP                                                  @X31ED32 08400000
         AIF   ('&ENTRIES'(1,1) EQ '(').EV50                   @X31ED32 08450000
         B     *+8                     BRANCH AROUND CONSTANT  @X31ED32 08500000
         DC    X'80'                   CREATE INDICATOR        @X31ED32 08550000
         DC    AL3(&ENTRIES)           NUMBER OF ENTRIES       @X31ED32 08600000
         L     0,*-4                   LOAD FLAG AND NUMBER    @X31ED32 08650000
         AGO   .EV60                                           @X31ED32 08700000
.*                                                             @X31ED32 08750000
.EV50    ANOP                                                  @X31ED32 08800000
         AIF   ('&ENTRIES(1)' EQ '0').EV55                     @X31ED32 08850000
         LR    0,&ENTRIES(1)           LOAD ENTRIES NUMBER     @X31ED32 08900000
.EV55    ANOP                                                  @X31ED32 08950000
         B     *+6                     BRANCH AROUND CONSTANT  @X31ED32 09000000
         DC    X'8000'                 CREATE INDICATOR        @X31ED32 09050000
         ICM   0,8,*-2                 LOAD ENTRIES INDICATOR  @X31ED32 09100000
.*                                                             @X31ED32 09150000
.EV60    ANOP                                                  @X31ED32 09200000
         XR    1,1                     CLEAR REGISTER 1        @X31ED32 09250000
         AGO   .EVTYP2                                         @X31ED32 09300000
.*                                                             @X31ED32 09350000
.************************************************************* @X31ED32 09400000
.*                                                           * @X31ED32 09450000
.****      INITIALIZE REG 0 FOR ENTRIES=DEL REQUEST        *** @X31ED32 09500000
.*                                                           * @X31ED32 09550000
.************************************************************* @X31ED32 09600000
.*                                                             @X31ED32 09650000
.EVDELET ANOP                                                  @X31ED32 09700000
         XR    0,0                     CLEAR REGISTER 0        @X31ED32 09750000
.*                                                             @X31ED32 09800000
.************************************************************* @X31ED32 09850000
.*                                                           * @X31ED32 09900000
.****                      ISSUE SVC                       *** @X31ED32 09950000
.*                                                           * @X31ED32 10000000
.************************************************************* @X31ED32 10050000
.*                                                             @X31ED32 10100000
.EVTYP2  ANOP                                                  @X31ED32 10150000
         LA    15,5(,0)                EXTENDED ROUTER NUMBER  @X31ED32 10200000
         SVC   122                     ISSUE TYPE 2 ESR SVC    @X31ED32 10250000
         MEXIT                                                 @X31ED32 10300000
.EVTYP1  ANOP                                                  @X31ED32 10350000
         AIF   (&B(7)).BRENTY                                  @Y30HPVA 10400000
         XR    15,15                   CLEAR RESERVED REGISTER @X31ED32 10450000
         SVC   125                     ISSUE TYPE 1 SVC        @X31ED32 10500000
         MEXIT                                                 @X31ED32 10550000
.BRENTY  ANOP                                                  @Y30HPVA 10600000
         L     15,CVTPTR(0,0)          LOAD CVT POINTER        @Y30HPVA 10650000
         L     15,CVTEVENT-CVTMAP(0,15) LOAD EVENTS ENTRY      @Y30HPVA 10700000
*                                      POINT ADDRESS           @Y30HPVA 10750000
         AIF   ('&WAIT' EQ 'YES').WAITYES                      @ZA03759 10800000
         BALR  14,15                   CALL EVENTS             @Y30HPVA 10850000
         MEXIT                                                 @Y30HPVA 10900000
.WAITYES ANOP                                                  @Y30HPVA 10950000
         BR    15                      GO TO EVENTS            @Y30HPVA 11000000
         MEXIT                                                 @Y30HPVA 11050000
.*                                                             @X31ED32 11100000
.************************************************************* @X31ED32 11150000
.*                                                           * @X31ED32 11200000
.****                     ERROR EXITS                      *** @X31ED32 11250000
.*                                                           * @X31ED32 11300000
.************************************************************* @X31ED32 11350000
.*                                                             @X31ED32 11400000
.ERROR1  ANOP                                                  @X31ED32 11450000
&PCHAR   SETC  'ENTRIES=&ENTRIES'                              @X31ED32 11500000
         IHBERMAC  1020,&PCHAR,&C(&X)                          @X31ED32 11550000
         MEXIT                                                 @X31ED32 11600000
.ERROR2  ANOP                                                  @X31ED32 11650000
         IHBERMAC  1020,ENTRIES,WAIT                           @X31ED32 11700000
         MEXIT                                                 @X31ED32 11750000
.ERROR3  ANOP                                                  @X31ED32 11800000
         IHBERMAC  1020,ENTRIES,LAST                           @X31ED32 11850000
         MEXIT                                                 @X31ED32 11900000
.ERROR4  ANOP                                                  @X31ED32 11950000
         IHBERMAC  24                                          @X31ED32 12000000
         MEXIT                                                 @X31ED32 12050000
.ERROR5  ANOP                                                  @X31ED32 12100000
         IHBERMAC  1001,ENTRIES,&ENTRIES                       @X31ED32 12150000
         MEXIT                                                 @X31ED32 12200000
.ERR6    ANOP                                                  @X31ED32 12250000
         IHBERMAC  1001,WAIT,&WAIT                             @X31ED32 12300000
         MEXIT                                                 @X31ED38 12350000
.ERROR7  ANOP                                                  @X31ED38 12400000
         IHBERMAC 1020,LAST,ECB                                @X31ED38 12450000
         MEXIT                                                 @X31ED38 12500000
.ERROR8  ANOP                                                  @X31ED38 12550000
         IHBERMAC 1020,ENTRIES,ECB                             @X31ED38 12600000
         MEXIT                                                 @Y30HPVA 12650000
.ERROR9  ANOP                                                  @Y30HPVA 12700000
         IHBERMAC  1001,BRANCH,&BRANCH                         @Y30HPVA 12750000
         MEXIT                                                 @Y30HPVA 12800000
.ERROR10 ANOP                                                  @Y30HPVA 12850000
         IHBERMAC  1020,ENTRIES,&C(7)                          @Y30HPVA 12900000
         MEND                                                  @X31ED32 12950000
