         MACRO                                                          03000003
&NAME    EXC   &D,&A                   EXECUTE                 @ZA00773 06000003
         GBLA  &DISP                   DISPLACEMENT            @ZA00773 09000003
         GBLC  &LBL1                   LABEL ON ENTR MACRO     @ZA00773 12000003
         LCLA  &DL                                             @ZA00773 15000003
         AIF   ('&D' LE '15').EXC1     DISPLACEMENT IS 0-15    @ZA00773 18000003
         MNOTE 4,'*** IHB349 DISPLACEMENT NOT 0-15 DIGITS'              21000003
.*                                                             @ZA00773 21050003
.EXC1    ANOP                                                  @ZA00773 24000003
&DL      SETA  16*&D                   PUT DISPLACEMENT IN HIGH ORDER   27000003
.*                                     4 BITS                  @ZA00773 30000003
&NAME    DC    0H'0',X'F9',AL1(&DL),AL2(&A-&LBL1+&DISP)                 33000003
.*                                                             @ZA00773 33050003
         MEND                                                           36000003
