  MACRO                                                                 00050000
&NAME EXCPVR &IOB,&REQSTR                                               00100000
.********************************************************************** 00105000
.*                                                                    * 00110000
.*   COPYRIGHT -                                                      * 00115000
.*     5740-XC6                                                       * 00120000
.*     THIS MACRO IS "RESTRICTED MATERIALS OF IBM"                    * 00125000
.*     (C) COPYRIGHT IBM CORP. 1982                                   * 00130000
.*     LICENSED MATERIALS - PROPERTY OF IBM                           * 00135000
.*                                                                    * 00135700
.*   CHANGE-ACTIVITY:                                                 * 00136400
.*    PN REASON  RELEASE  DATE   ORG   COMMENTS                       * 00137100
.*   $01=OY51106 HBB3310 920618 PDLP: DO NOT ZERO OUT REGISTER 0      * 00137800
.*                                    SINCE IT MAY CONTAIN THE IOB    * 00138500
.*                                    EXTENSION ADDRESS               * 00139200
.*   $02=OY58549 JBB2220 921210 PDMC: RESHIPPED TO SUPERCEDE OY51106. * 00139400
.*                                    (NO CODE CHANGES).          @02A* 00139600
.*                                                                    * 00140000
.********************************************************************** 00145000
 AIF ( '&IOB' EQ '' OR ( '&REQSTR' NE 'SUBSYS' AND '&REQSTR' NE        X00150000
               'PAGING' AND '&REQSTR' NE '')).E1                ZA04100 00200000
&NAME IHBINNRA &IOB                                                     00250000
 AIF ('&REQSTR' EQ 'PAGING').PAGE                                       00300000
         B     *+6                     BRANCH AROUND DC                 00350000
         DC    X'F400'                                                  00400000
         ICM   1,B'1000',*-2           INSERT F4 INTO HIGH ORDER BYTE   00450000
  AGO .SVC                                                              00500000
.PAGE ANOP                                                              00550000
         B     *+6                     BRANCH AROUND DC                 00600000
         DC    X'F800'                                                  00650000
         ICM   1,B'1000',*-2           INSERT F8 INTO HIGH ORDER BYTE   00700000
.SVC ANOP                                                               00750000
         SVC   114                     ISSUE SVC FOR EXCPVR             00850000
         MEXIT                                                          00900000
.E1 IHBERMAC 01,039                    ERROR IN EXCPVR INVOCATION       00950000
         MEND                                                           01000000
