         MACRO                                                          00050000
&NAME    EXCP  &IOB                                                     00100000
.********************************************************************** 00105000
.*                                                                    * 00110000
.*   COPYRIGHT -                                                      * 00115000
.*     5740-XC6                                                       * 00120000
.*     THIS MACRO IS "RESTRICTED MATERIALS OF IBM"                    * 00125000
.*     (C) COPYRIGHT IBM CORP. 1982                                   * 00130000
.*     LICENSED MATERIALS - PROPERTY OF IBM                           * 00135000
.*                                                                    * 00140000
.********************************************************************** 00145000
         AIF   ('&IOB' EQ '').E1                                        00150000
&NAME    IHBINNRA &IOB                      LOAD REG 1                  00200000
         SVC   0                                 ISSUE SVC FOR EXCP     00250000
         MEXIT                                                          00300000
.E1      IHBERMAC 01,039                    IOB MISSING                 00350000
         MEND                                                           00400000
