         MACRO                                                          00050000
&NAME    EXLVS &EODAD=,&LERAD=,&JRNAD=,&SYNAD=,                    @LIC-00083300
               &UPAD=,&IOPID=,&QUIESCE=,&RLSWAIT=                  @LIA 00116600
.*                                                                5@LHD 00150000
.*                                                                      00280000
.*PROPRIETARY V3 STATEMENT                                              00280500
.*LICENSED MATERIALS - PROPERTY OF IBM                                  00281000
.*"RESTRICTED MATERIALS OF IBM"                                         00281500
.*5695-DF1                                                              00282000
.*(C) COPYRIGHT 1985,1995  IBM CORP.                                    00282500
.*END PROPRIETARY V3 STATEMENT                                          00283200
.*                                                                      00284000
.* STATUS = MVS/XA DFP RELEASE 2.1.0                                    00289000
.*                                                                      00294000
.* FUNCTION-   THE FUNCTION OF THIS MACRO IS TO BUILD,         @ZA34940 00300000
.*             AT ASSEMBLY TIME, AN EXIT LIST FOR A            @ZA34940 00320000
.*             VSAM USER.                                      @ZA34940 00340000
.*             EXLVS IS INVOKED BY MACRO EXLST WHEN A USER     @ZA34940 00360000
.*             ISSUES AN EXLST MACRO WITH NO 'AM' SPECIFIED    @ZA34940 00380000
.*             OR 'AM=VSAM' SPECIFIED.                         @ZA34940 00400000
.*                                                             @ZA34940 00420000
.*             PARAMETERS ARE PASSED TO THE EXLST MACRO IN THE          00600000
.*             FOLLOWING FORMS                                          00650000
.*                      KEYWORD=ADDRESS                                 00700000
.*                      KEYWORD=0                                       00750000
.*                      KEYWORD=(ADDRESS,N,L,A)                @Z40BHUC 00800000
.*                      KEYWORD=(0,N,A,L)                      @X30BHUC 00850000
.*                                                                      00900000
.*                                                                      00902800
.* CHANGE ACTIVITY                                             @ZA34940 00905600
.*                                                                      00908400
.*      CHANGE LEVEL = 0                                           @LHM 00911200
.*      DATE OF LAST CHANGE =   JULY 6, 1989                   @YA24081 00914000
.*                                                                      00916800
.*      CBMM SPLIT SUPPORT                                     @ZA34940 00920000
.*                                                             @ZA34940 00930000
.* $LH=DFP,HDP2210,,STLASN:  MVS/XA DFP RELEASE 2.1.0                   00950000
.*     WILL NOT ASSEMBLE UNDER ASSEMBLER-F                     @YA24081 00975000
.* $LI=DFSMS,HDZ11C0,043093,SJPLRG: VSAM RLS                       @LIA 00994400
.* CHANGE SIZE OF EXLST TO ALWAYS END ON WORD BOUNDARY         @WA24364 01004100
.* CHANGE SIZE OF EXLST TO ALWAYS END ON WORD BOUNDARY         @WA24364 01007300
.* CORRECT DISPLACEMENT FOR WORD BOUNDARY (OW26711)            @WA23308 01010500
.******************************************************************@LIC 01013800
         LCLA  &FLAG,&ACTIVE,&CNT,&LINT                        @YA24081 01033300
         LCLB  &DUP1                                           @YA24081 01066600
.*                                                                3@LHD 01100000
&NAME    DS    0F                                                       01150000
         DC    X'81'                    EXLIST IDENTIFICATION           01200000
.*                                                                9@LHD 01250000
         DC    AL1(16)                  EXLST SUBTYPE              @LHC 01300000
.*                                                                      01800000
.*                                                               89@LHD 01850000
.*       THE LENGTH MUST BE PLACED IN THE LENGTH FIELD AND MUST BE      01900000
.*       ON A WORD BOUNDARY. IDA019C1 AND IFGEXLST MUST ALSO            01950000
.*       BE CHANGED FOR COMPATIBILITY                         @WA24364  02000000
         DC    H'48'                    EXLST LIST LENGTH     @WA24364  02050000
         DC    X'00'                    EXLST FLAGS                     06350000
.*             EACH PARAMETER MUST NOW BE SCANNED FOR THE VALUES        06400000
.*             PASSED                                                   06450000
.*                                                                      06500000
.*                           EODAD                                      06550000
.*                                                                      06600000
.*             THE FLAG BITS MUST BE INITIALIZED TO THEIR DEFAULT       06650000
.*             VALUES                                                   06700000
&FLAG    SETA  0                        DEFAULT TO NO EXIT SPECIFIED    06750000
&ACTIVE  SETA  0                        DEFAULT TO INACTIVE             06800000
&LINT    SETA  0                        DEFAULT TO ADDR SPECIFIED       06850000
&DUP1    SETB  0                        RESET DUPLICATE FLAG            06900000
&CNT     SETA  1                        POSITION TO FIRST VALUE         06950000
         AIF   ('&EODAD' EQ '').NOEOD   BR TO END IF NOT SPECIFIED      07000000
&FLAG    SETA  128                      GET DEFAULT SPECIFIED VALUES    07050000
&ACTIVE  SETA  64                       DEFAULT TO ACTIVE IF SPECIFIED  07100000
         AIF   ('&EODAD(1)' NE '0').EODLP CHECK 0 ADDR                  07150000
&ACTIVE  SETA  0                        0 ADDR INDICATES INACTIVE       07200000
.*                                                                      07250000
.EODLP   ANOP                                                           07300000
&CNT     SETA  &CNT+1                   INCR PARAMETER COUNT            07350000
         AIF   (&CNT GT N'&EODAD).SETEOD SET BITS IF ALL PARMS TESTED   07400000
         AIF   ('&EODAD(&CNT)' NE 'N').EODACT CHECK ACTIVE IF NOT N     07450000
         AIF   (&DUP1).EODERR           ERROR IF DUPLICATE              07500000
&DUP1    SETB  1                        INDICATE PARAMETER FOUND        07550000
&ACTIVE  SETA  0                        INDICATE INACTIVE IF N          07600000
         AGO   .EODLP                   CONTINUE CHECKING               07650000
.EODACT  ANOP                                                           07700000
         AIF   ('&EODAD(&CNT)' NE 'A').EODLNK CHECK IF LINK             07750000
         AIF   (&DUP1).EODERR           ERROR IF DUPLICATE              07800000
&DUP1    SETB  1                        INDICATE PARAMETER FOUND        07850000
&ACTIVE  SETA  64                       INDICATE ACTIVE IF A            07900000
         AGO   .EODLP                   LOOP UNTIL ALL CHECKED          07950000
.EODLNK  ANOP                                                           08000000
         AIF   ('&EODAD(&CNT)' NE 'L').EODERR UNKNOWN IF NOT L OR N     08050000
&LINT    SETA  32                       INDICATE LINK SPECIFIED         08100000
         AGO   .EODLP                   LOOP UNTIL ALL CHECKED          08150000
.*                                                                      08200000
.EODERR  ANOP                                                           08250000
.*             ERROR MESSAGE IF INVALID PARAMETER                       08300000
         MNOTE 4,'AM00006 EODAD=&EODAD(&CNT) INVALID, DUPLICATE OR CONFX08350000
               LICTING OPTION-IGNORED'                                  08400000
         AGO   .EODLP                   LOOP UNTIL ALL CHECKED          08450000
.*                                                                      08500000
.SETEOD  ANOP                           SET FOUND VALUES                08550000
&FLAG    SETA  &FLAG+&ACTIVE+&LINT      ADD ALL BITS SET                08600000
         DC    AL1(&FLAG)               EODAD ENTRY DESCRIPTION         08650000
         DC    AL4(&EODAD(1))           POINTER TO EODAD EXIT           08700000
         AGO   .ENDEOD                                                  08750000
.NOEOD   ANOP                           NO ENTRY SPECIFIED              08800000
         DC    AL1(0)                   EODAD ENTRY NOT PRESENT         08850000
         DC    AL4(0)                   ZERO EODAD ENTRY POINTER        08900000
.ENDEOD  ANOP                                                           08950000
.*                                                                2@LHD 09000000
.*                                                                      09100000
.*                           SYNAD                                      09150000
.*                                                                      09200000
.*             THE FLAG BITS MUST BE INITIALIZED TO THEIR DEFAULT       09250000
.*             VALUES                                                   09300000
&FLAG    SETA  0                        DEFAULT TO NO EXIT SPECIFIED    09350000
&ACTIVE  SETA  0                        DEFAULT TO INACTIVE             09400000
&LINT    SETA  0                        DEFAULT TO ADDR SPECIFIED       09450000
&DUP1    SETB  0                        RESET DUPLICATE FLAG            09500000
&CNT     SETA  1                        POSITION TO FIRST VALUE         09550000
.SYN     AIF   ('&SYNAD' EQ '').NOSYN   BR TO END IF NOT SPECIFIED      09600000
&FLAG    SETA  128                      GET DEFAULT SPECIFIED VALUES    09650000
&ACTIVE  SETA  64                       DEFAULT TO ACTIVE IF SPECIFIED  09700000
         AIF   ('&SYNAD(1)' NE '0').SYNLP CHECK 0 ADDR                  09750000
&ACTIVE  SETA  0                        0 ADDR INDICATES INACTIVE       09800000
.*                                                                      09850000
.SYNLP   ANOP                                                           09900000
&CNT     SETA  &CNT+1                   INCR PARAMETER COUNT            09950000
         AIF   (&CNT GT N'&SYNAD).SETSYN SET BITS IF ALL PARMS TESTED   10000000
         AIF   ('&SYNAD(&CNT)' NE 'N').SYNACT CHECK ACTIVE IF NOT N     10050000
         AIF   (&DUP1).SYNERR           ERROR IF DUPLICATE              10100000
&DUP1    SETB  1                        INDICATE PARAMETER FOUND        10150000
&ACTIVE  SETA  0                        INDICATE INACTIVE IF N          10200000
         AGO   .SYNLP                   CONTINUE CHECKING               10250000
.SYNACT  ANOP                                                           10300000
         AIF   ('&SYNAD(&CNT)' NE 'A').SYNLNK CHECK IF LINK             10350000
         AIF   (&DUP1).SYNERR           ERROR IF DUPLICATE              10400000
&DUP1    SETB  1                        INDICATE PARAMATER FOUND        10450000
&ACTIVE  SETA  64                       INDICATE ACTIVE IF A            10500000
         AGO   .SYNLP                   CONTINUE CHECKING               10550000
.SYNLNK  ANOP                                                           10600000
         AIF   ('&SYNAD(&CNT)' NE 'L').SYNERR UNKNOWN IF NOT L OR N     10650000
&LINT    SETA  32                       INDICATE LINK SPECIFIED         10700000
         AGO   .SYNLP                   LOOP UNTIL ALL CHECKED          10750000
.*                                                                      10800000
.SYNERR  ANOP                                                           10850000
.*             ERROR MESSAGE IF INVALID PARAMETER                       10900000
         MNOTE 4,'AM00006 SYNAD=&SYNAD(&CNT) INVALID, DUPLICATE OR CONFX10950000
               LICTING OPTION-IGNORED'                                  11000000
         AGO   .SYNLP                   LOOP UNTIL ALL CHECKED          11050000
.*                                                                      11100000
.SETSYN  ANOP                           SET FOUND VALUES                11150000
&FLAG    SETA  &FLAG+&ACTIVE+&LINT      ADD ALL BITS SET                11200000
         DC    AL1(&FLAG)               SYNAD ENTRY DESCRIPTION         11250000
         DC    AL4(&SYNAD(1))           POINTER TO SYNAD EXIT           11300000
         AGO   .ENDSYN                                                  11350000
.NOSYN   ANOP                           NO ENTRY SPECIFIED              11400000
         DC    AL1(0)                   SYNAD ENTRY NOT PRESENT         11450000
         DC    AL4(0)                   ZERO SYNAD ENTRY POINTER        11500000
.ENDSYN  ANOP                                                           11550000
.*                                                                2@LHD 11600000
.*                                                                      11700000
.*                           LERAD                                      11750000
.*                                                                      11800000
.*             THE FLAG BITS MUST BE INITIALIZED TO THEIR DEFAULT       11850000
.*             VALUES                                                   11900000
.LER     ANOP                                                           11950000
&FLAG    SETA  0                        DEFAULT TO NO EXIT SPECIFIED    12000000
&ACTIVE  SETA  0                        DEFAULT TO INACTIVE             12050000
&LINT    SETA  0                        DEFAULT TO ADDR SPECIFIED       12100000
&DUP1    SETB  0                        RESET DUPLICATE FLAG            12150000
&CNT     SETA  1                        POSITION TO FIRST VALUE         12200000
         AIF   ('&LERAD' EQ '').NOLER   BR TO END IF NOT SPECIFIED      12250000
&FLAG    SETA  128                      GET DEFAULT SPECIFIED VALUES    12300000
&ACTIVE  SETA  64                       DEFAULT TO ACTIVE IF SPECIFIED  12350000
         AIF   ('&LERAD(1)' NE '0').LERLP CHECK 0 ADDR                  12400000
&ACTIVE  SETA  0                        0 ADDR INDICATES INACTIVE       12450000
.*                                                                      12500000
.LERLP   ANOP                                                           12550000
&CNT     SETA  &CNT+1                   INCR PARAMETER COUNT            12600000
         AIF   (&CNT GT N'&LERAD).SETLER SET BITS IF ALL PARMS TESTED   12650000
         AIF   ('&LERAD(&CNT)' NE 'N').LERACT CHECK ACTIVE IF NOT N     12700000
         AIF   (&DUP1).LERERR           ERROR IF DUPLICATE              12750000
&DUP1    SETB  1                        INDICATE PARAMETER FOUND        12800000
&ACTIVE  SETA  0                        INDICATE INACTIVE IF N          12850000
         AGO   .LERLP                   CONTINUE CHECKING               12900000
.LERACT  ANOP                                                           12950000
         AIF   ('&LERAD(&CNT)' NE 'A').LERLNK CHECK IF LINK             13000000
         AIF   (&DUP1).LERERR           ERROR IF DUPLICATE              13050000
&DUP1    SETB  1                        INDICATE PARAMETER FOUND        13100000
&ACTIVE  SETA  64                       INDICATE ACTIVE IF A            13150000
         AGO   .LERLP                   LOOP UNTIL ALL CHECKED          13200000
.LERLNK  ANOP                                                           13250000
         AIF   ('&LERAD(&CNT)' NE 'L').LERERR UNKNOWN IF NOT L OR N     13300000
&LINT    SETA  32                       INDICATE LINK SPECIFIED         13350000
         AGO   .LERLP                   LOOP UNTIL ALL CHECKED          13400000
.*                                                                      13450000
.LERERR  ANOP                                                           13500000
.*             ERROR MESSAGE IF INVALID PARAMETER                       13550000
         MNOTE 4,'AM00006 LERAD=&LERAD(&CNT) INVALID, DUPLICATE OR CONFX13600000
               LICTING OPTION-IGNORED'                                  13650000
         AGO   .LERLP                   LOOP UNTIL ALL CHECKED          13700000
.*                                                                      13750000
.SETLER  ANOP                           SET FOUND VALUES                13800000
&FLAG    SETA  &FLAG+&ACTIVE+&LINT      ADD ALL BITS SET                13850000
         DC    AL1(&FLAG)               LERAD ENTRY DESCRIPTION         13900000
         DC    AL4(&LERAD(1))           POINTER TO LERAD EXIT           13950000
         AGO   .ENDLER                                                  14000000
.NOLER   ANOP                           NO ENTRY SPECIFIED              14050000
         DC    AL1(0)                   LERAD ENTRY NOT PRESENT         14100000
         DC    AL4(0)                   ZERO LERAD ENTRY POINTER        14150000
.ENDLER  ANOP                                                           14200000
.*                                                                3@LHD 14250000
.*                                      FIELD                 @ZA07549  14400000
.*                                                             @ZA07549 14450000
.*                           UPAD                              @ZA07549 14500000
.*                                                             @ZA07549 14550000
.*          THE FLAG BITS MUST BE INITIALIZED TO THEIR DEFAULT@ZA07549  14600000
.*             VALUES                                          @ZA07549 14650000
&FLAG    SETA  0                        DEFAULT TO NO EXIT SPEC@ZA07549 14700000
&ACTIVE  SETA  0                        DEFAULT TO INACTIVE    @ZA07549 14750000
&LINT    SETA  0                        DEFAULT TO ADDR SPEC   @ZA07549 14800000
&DUP1    SETB  0                        RESET DUPLICATE FLAG   @ZA07549 14850000
&CNT     SETA  1                        POSITION TO FIRST VALUE@ZA07549 14900000
         AIF   ('&UPAD'  EQ '').NOUPAD  BR TO END IF NOT SPEC  @ZA07549 14950000
&FLAG    SETA  128                      GET DEF SPEC VALUES    @ZA07549 15000000
&ACTIVE  SETA  64                       DEF TO ACTIVE IF SPEC  @ZA07549 15050000
         AIF   ('&UPAD(1)'  NE '0').UPADLP CHECK 0 ADDR        @ZA07549 15100000
&ACTIVE  SETA  0                        0 ADDR IND INACTIVE    @ZA07549 15150000
.*                                                             @ZA07549 15200000
.UPADLP  ANOP                                                  @ZA07549 15250000
&CNT     SETA  &CNT+1                   INCR PARAMETER COUNT   @ZA07549 15300000
         AIF   (&CNT GT N'&UPAD).SETUPAD SET BIT IF PARM TESTD @ZA07549 15350000
         AIF   ('&UPAD(&CNT)' NE 'N').UPADACT CK ACTIVE IF NO N@ZA07549 15400000
         AIF   (&DUP1).UPADERR          ERROR IF DUPLICATE     @ZA07549 15450000
&DUP1    SETB  1                        INDICATE PARM FOUND    @ZA07549 15500000
&ACTIVE  SETA  0                        INDICATE INACTIVE IF N @ZA07549 15550000
         AGO   .UPADLP                  CONTINUE CHECKING      @ZA07549 15600000
.UPADACT ANOP                                                  @ZA07549 15650000
         AIF   ('&UPAD(&CNT)' NE 'A').UPADLNK CHECK IF LINK    @ZA07549 15700000
         AIF   (&DUP1).UPADERR          ERROR IF DUPLICATE     @ZA07549 15750000
&DUP1    SETB  1                        INDICATE PARAMETER FND @ZA07549 15800000
&ACTIVE  SETA  64                       INDICATE ACTIVE IF A   @ZA07549 15850000
         AGO   .UPADLP                  LOOP UNTIL ALL CHECKED @ZA07549 15900000
.UPADLNK ANOP                                                  @ZA07549 15950000
         AIF   ('&UPAD(&CNT)' NE 'L').UPADERR UNKNOWN, NOT L|N @ZA07549 16000000
&LINT    SETA  32                       INDICATE LINK SPEC     @ZA07549 16050000
         AGO   .UPADLP                  LOOP UNTIL ALL CHECKED @ZA07549 16100000
.*                                                             @ZA07549 16150000
.UPADERR ANOP                                                  @ZA07549 16200000
.*             ERROR MESSAGE IF INVALID PARAMETER              @ZA07549 16250000
         MNOTE 4,'AM00006 UPAD=&UPAD(&CNT) INVALID, DUPLICATE OR CONFLIX16300000
               CTING OPTION-IGNORED'                           @ZA07549 16350000
         AGO   .UPADLP                  LOOP UNTIL ALL CHECKED @ZA07549 16400000
.*                                                             @ZA07549 16450000
.SETUPAD ANOP                           SET FOUND VALUES       @ZA07549 16500000
&FLAG    SETA  &FLAG+&ACTIVE+&LINT      ADD ALL BITS SET       @ZA07549 16550000
         DC    AL1(&FLAG)               UPAD ENTRY DESCRIPTION @ZA07549 16600000
         DC    AL4(&UPAD(1))            POINTER TO UPAD EXIT   @ZA07549 16650000
         AGO   .ENDUPAD                                        @ZA07549 16700000
.NOUPAD  ANOP                           NO ENTRY SPECIFIED     @ZA07549 16750000
         DC    AL1(0)                   UPAD  ENTRY NOT PRESENT@ZA07549 16800000
         DC    AL4(0)                   ZERO UPAD  ENTRY PNTR  @ZA07549 16850000
.ENDUPAD ANOP                                                  @ZA07549 16900000
.*                                                              134@LHD 16950000
.*                                                                 @LHA 17000000
.*                           IOPID                                 @LHA 17050000
.*                                                                 @LHA 17100000
.*             THE FLAG BITS MUST BE INITIALIZED TO THEIR DEFAULT  @LHA 17150000
.*             VALUES                                              @LHA 17200000
.TSTIOP  ANOP                                                      @LHA 17250000
&FLAG    SETA  0                        DEFAULT TO NO EXIT SPECIFIED    17300000
&ACTIVE  SETA  0                        DEFAULT TO INACTIVE        @LHA 17350000
         AIF   ('&IOPID' EQ '').NOIOP   BR TO END IF NOT SPECIFIED @LHA 17400000
&FLAG    SETA  128                    GET DEFAULT SPECIFIED VALUES @LHA 17450000
&ACTIVE  SETA  64                   DEFAULT TO ACTIVE IF SPECIFIED @LHA 17500000
         AIF   ('&IOPID(1)' NE '0').SETIOP CHECK 0 ADDR            @LHA 17550000
&ACTIVE  SETA  0                        0 ADDR INDICATES INACTIVE  @LHA 17600000
.*                                                                 @LHA 17650000
.SETIOP  ANOP                           SET FOUND VALUES           @LHA 17700000
&FLAG    SETA  &FLAG+&ACTIVE            ADD ALL BITS SET           @LHA 17750000
         DC    AL1(&FLAG)               IOPID ENTRY DESCRIPTION    @LHA 17800000
         DC    AL4(&IOPID(1))           ADDRESS OF IOPID           @LHA 17850000
         AGO   .ENDIOP                                             @LHA 17900000
.NOIOP   ANOP                           NO ENTRY SPECIFIED         @LHA 17950000
         DC    AL1(0)                   IOPID ENTRY NOT PRESENT    @LHA 18000000
         DC    AL4(0)                   ADDRESS OF IOPID           @LHA 18050000
.ENDIOP  ANOP                                                      @LHA 18100000
.*                                                                      21000000
.*                           JRNAD                                      21050000
.*                                                                      21100000
.*             THE FLAG BITS MUST BE INITIALIZED TO THEIR DEFAULT       21150000
.*             VALUES                                                   21200000
.TSTJRN  ANOP                                                   X3004BH 21250000
&FLAG    SETA  0                        DEFAULT TO NO EXIT SPECIFIED    21300000
&ACTIVE  SETA  0                        DEFAULT TO INACTIVE             21350000
&LINT    SETA  0                        DEFAULT TO ADDR SPECIFIED       21400000
&DUP1    SETB  0                        RESET DUPLICATE FLAG            21450000
&CNT     SETA  1                        POSITION TO FIRST VALUE         21500000
         AIF   ('&JRNAD' EQ '').NOJRN   BR TO END IF NOT SPECIFIED      21550000
&FLAG    SETA  128                      GET DEFAULT SPECIFIED VALUES    21600000
&ACTIVE  SETA  64                       DEFAULT TO ACTIVE IF SPECIFIED  21650000
         AIF   ('&JRNAD(1)' NE '0').JRNLP CHECK 0 ADDR                  21700000
&ACTIVE  SETA  0                        0 ADDR INDICATES INACTIVE       21750000
.*                                                                      21800000
.JRNLP   ANOP                                                           21850000
&CNT     SETA  &CNT+1                   INCR PARAMETER COUNT            21900000
         AIF   (&CNT GT N'&JRNAD).SETJRN SET BITS IF ALL PARMS TESTED   21950000
         AIF   ('&JRNAD(&CNT)' NE 'N').JRNACT CHECK ACTIVE IF NOT N     22000000
         AIF   (&DUP1).JRNERR           ERROR IF DUPLICATE              22050000
&DUP1    SETB  1                        INDICATE PARAMETER FOUND        22100000
&ACTIVE  SETA  0                        INDICATE INACTIVE IF N          22150000
         AGO   .JRNLP                   CONTINUE CHECKING               22200000
.JRNACT  ANOP                                                           22250000
         AIF   ('&JRNAD(&CNT)' NE 'A').JRNLNK CHECK IF LINK             22300000
         AIF   (&DUP1).JRNERR           ERROR IF DUPLICATE              22350000
&DUP1    SETB  1                        INDICATE PARAMETER FOUND        22400000
&ACTIVE  SETA  64                       INDICATE ACTIVE IF A            22450000
         AGO   .JRNLP                   LOOP UNTIL ALL CHECKED          22500000
.JRNLNK  ANOP                                                           22550000
         AIF   ('&JRNAD(&CNT)' NE 'L').JRNERR UNKNOWN IF NOT L OR N     22600000
&LINT    SETA  32                       INDICATE LINK SPECIFIED         22650000
         AGO   .JRNLP                   LOOP UNTIL ALL CHECKED          22700000
.*                                                                      22750000
.JRNERR  ANOP                                                           22800000
.*             ERROR MESSAGE IF INVALID PARAMETER                       22850000
         MNOTE 4,'AM00006 JRNAD=&JRNAD(&CNT) INVALID, DUPLICATE OR CONFX22900000
               LICTING OPTION-IGNORED'                                  22950000
         AGO   .JRNLP                   LOOP UNTIL ALL CHECKED          23000000
.*                                                                      23050000
.SETJRN  ANOP                           SET FOUND VALUES                23100000
&FLAG    SETA  &FLAG+&ACTIVE+&LINT      ADD ALL BITS SET                23150000
         DC    AL1(&FLAG)               JRNAD ENTRY DESCRIPTION         23200000
         DC    AL4(&JRNAD(1))           POINTER TO JRNAD EXIT           23250000
         AGO   .ENDJRN                                                  23300000
.NOJRN   ANOP                           NO ENTRY SPECIFIED              23350000
         DC    AL1(0)                   JRNAD ENTRY NOT PRESENT         23400000
         DC    AL4(0)                   ZERO JRNAD ENTRY POINTER        23450000
.ENDJRN  ANOP                                                           23500000
.*                                      FIELD                  @LIA     26051800
.*                                                             @LIA     26053600
.*                           RLSWAIT                           @LIA     26055400
.*                                                             @LIA     26057200
.*          THE FLAG BITS MUST BE INITIALIZED TO THEIR DEFAULT @LIA     26059000
.*             VALUES                                          @LIA     26060800
&FLAG    SETA  0                        DEFAULT TO NO EXIT SPEC@LIA     26062600
&ACTIVE  SETA  0                        DEFAULT TO INACTIVE    @LIA     26064400
&LINT    SETA  0                        DEFAULT TO ADDR SPEC   @LIA     26066200
&DUP1    SETB  0                        RESET DUPLICATE FLAG   @LIA     26068000
&CNT     SETA  1                        POSITION TO FIRST VALUE@LIA     26069800
         AIF   ('&RLSWAIT'  EQ '').NORLSW  BR TO END IF NOT    @LIA     26071600
&FLAG    SETA  128                      GET DEF SPEC VALUES    @LIA     26073400
&ACTIVE  SETA  64                       DEF TO ACTIVE IF SPEC  @LIA     26075200
         AIF   ('&RLSWAIT(1)'  NE '0').RLSWLP CHECK 0 ADDR     @LIA     26077000
&ACTIVE  SETA  0                        0 ADDR IND INACTIVE    @LIA     26078800
.*                                                             @LIA     26080600
.RLSWLP  ANOP                                                  @LIA     26082400
&CNT     SETA  &CNT+1                   INCR PARAMETER COUNT   @LIA     26084200
         AIF   (&CNT GT N'&RLSWAIT).SETRLSW SET BIT IF PARM TST@LIA     26086000
         AIF   ('&RLSWAIT(&CNT)' NE 'N').RLSWACT CK ACTIVE IF N@LIA     26087800
         AIF   (&DUP1).RLSWERR          ERROR IF DUPLICATE     @LIA     26089600
&DUP1    SETB  1                        INDICATE PARM FOUND    @LIA     26091400
&ACTIVE  SETA  0                        INDICATE INACTIVE IF N @LIA     26093200
         AGO   .RLSWLP                  CONTINUE CHECKING      @LIA     26095000
.RLSWACT ANOP                                                  @LIA     26096800
         AIF   ('&RLSWAIT(&CNT)' NE 'A').RLSWLNK CHECK IF LINK @LIA     26098600
         AIF   (&DUP1).RLSWERR          ERROR IF DUPLICATE     @LIA     26100400
&DUP1    SETB  1                        INDICATE PARAMETER FND @LIA     26102200
&ACTIVE  SETA  64                       INDICATE ACTIVE IF A   @LIA     26104000
         AGO   .RLSWLP                  LOOP UNTIL ALL CHECKED @LIA     26105800