         MACRO                                                          03000003
&NAME    EXT                                                            06000003
&NAME    DC    XL2'FF00'                END ALGORITHM                   09000003
         MEND                                                           12000003
