*%/*                                                                    00030000
         MACRO                                                          00040000
&NAME    EXTRACT &LIST,&TBLOC,&FIELDS=O,&MF=I                           00050000
         LCLA  &I1,&I2,&NOFLDS,&LGTH,&SUM,&SUM2                   20021 00100000
         LCLB  &ISW,&LSW,&B(12),&BSET                             ***** 00150000
         LCLC  &T(12),&PARA                                       ***** 00200000
&NOFLDS  SETA  N'&FIELDS                                                00250000
         AIF   (&NOFLDS GT 12).E1                                 ***** 00300000
&T(1)    SETC  'GRS'                                                    00350000
&T(2)    SETC  'FRS'                                                    00400000
&T(3)    SETC  'TAX'                                                    00450000
&T(4)    SETC  'AETX'                                                   00500000
&T(5)    SETC  'PRI'                                                    00550000
&T(6)    SETC  'CMC'                                                    00600000
&T(7)    SETC  'TIOT'                                                   00650000
&T(8)    SETC  'COMM'                                              I272 00700000
&T(9)    SETC  'TSO'                                              20021 00750000
&T(10)   SETC  'PSB'                                              20021 00800000
&T(11)   SETC  'TJID'                                             20021 00850000
&T(12)   SETC  'ASID'                                             ***** 00900000
&I1      SETA  1                                                        00950000
         AIF   ('&MF' EQ 'L').LROUT                                     01000000
         AIF   ('&MF' EQ 'I').IROUT                                     01050000
         AIF   (N'&MF NE 2).E2                                          01100000
         AIF   ('&MF(1)' NE 'E').E2                                     01150000
&NAME    IHBINNRA &MF(2)                                                01200000
.CONTA   AIF   ('&LIST' EQ '').CHKTBK                                   01250000
         AIF   ('&LIST'(1,1) EQ '(').REGLIST                            01300000
         LA    14,&LIST                          PICK UP LIST ADDRESS   01350000
         ST    14,0(1,0)                         STORE INTO PARAM. LIST 01400000
         AGO   .CHKTBK                                                  01450000
.REGLIST ST    &LIST(1),0(1,0)                   STORE LIST ADDRESS     01500000
.CHKTBK  AIF   ('&TBLOC' EQ '').CHKFLD                                  01550000
         AIF   ('&TBLOC' EQ '''S''').STBLOC                             01600000
         AIF   ('&TBLOC'(1,1) EQ '(').REGTBK                            01650000
         LA    14,&TBLOC                         PICK UP TCB ADDRESS    01700000
         ST    14,4(1,0)                         STORE INTO PARAM. LIST 01750000
         AGO   .CHKFLD                                                  01800000
.REGTBK  ST    &TBLOC(1),4(1,0)                  STORE TCB ADDRESS      01850000
         AGO   .CHKFLD                                                  01900000
.STBLOC  SR    14,14                             INDICATE ISSUING TASK  01950000
         ST    14,4(1,0)                         TCB TO BE USED         02000000
.CHKFLD  AIF   ('&FIELDS' EQ 'O').ISVC                                  02050000
.LOOP    ANOP                                                           02100000
&I2      SETA  1                                                        02150000
&BSET    SETB  0                                                   I272 02200000
.TEST    AIF   (('&FIELDS(&I1)' NE '&T(&I2)') AND                      *02250000
               ('&FIELDS(&I1)' NE 'ALL' OR &I2 GT 7)).INCR         I272 02300000
&B(&I2)  SETB  1                                                   I272 02350000
&BSET    SETB  1                                                   I272 02400000
.INCR    AIF   (&I2 GT 7 AND &BSET).INCR2                         20021 02450000
         AIF   (&I2 GT 12).E3                                     ***** 02500000
&I2      SETA  &I2+1                                                    02550000
         AGO   .TEST                                                    02600000
.INCR2   AIF   (&I1 EQ &NOFLDS).SUMUP                                   02650000
&I1      SETA  &I1+1                                                    02700000
         AGO   .LOOP                                                    02750000
.SUMUP   ANOP                                                           02800000
&SUM     SETA  &B(7)*2+&B(6)*4+&B(5)*8+&B(4)*16+&B(3)*32+&B(2)*64+&B(1)X02850000
               *128+&B(8)*1                                        I272 02900000
&SUM2    SETA  &B(9)*128+&B(10)*64+&B(11)*32+&B(12)*16            ***** 02950000
.GOOUT   AIF   (&ISW).IRETURN                                           03000000
         AIF   (&LSW).LRETURN                                           03050000
         MVI   8(1),&SUM                         MOVE IN FIELDS BYTE    03100000
         MVI   9(1),&SUM2    .         MOVE IN FIELD BYTE 2       20021 03150000
.ISVC    SVC   40                                ISSUE EXTRACT SVC      03200000
         AGO   .END                                                     03250000
.IROUT   CNOP  0,4                                                      03300000
&NAME    BAL   1,*+16                            BRANCH AROUND LIST     03350000
         AIF   ('&LIST' EQ '').E4                                       03400000
         AIF   ('&LIST'(1,1) EQ '(').ZLIST                              03450000
         DC    A(&LIST)                          LIST ADDRESS           03500000
         AGO   .CKTBK                                                   03550000
.ZLIST   DC    A(0)                              LIST ADDRESS           03600000
.CKTBK   AIF   ('&TBLOC' EQ '' OR '&TBLOC' EQ '''S''').ZTBL             03650000
         AIF   ('&TBLOC'(1,1) EQ '(').ZTBL                              03700000
         DC    A(&TBLOC)                         TCB ADDRESS            03750000
         AGO   .CKFLD                                                   03800000
.ZTBL    DC    A(0)                              TCB ADDRESS            03850000
.CKFLD   AIF   ('&FIELDS' EQ 'O').E5                                    03900000
&ISW     SETB  1                                                        03950000
         AGO   .LOOP                                                    04000000
.IRETURN DC    AL1(&SUM)                         FIELD BYTE             04050000
         DC    AL1(&SUM2)    .         FIELD BYTE 2               20021 04100000
         DC    AL2(0) .                                           20021 04150000
         AIF   ('&LIST'(1,1) NE '(').TSTTBLK                            04200000
         ST    &LIST(1),0(1,0)                   STORE LIST ADDRESS     04250000
.TSTTBLK AIF   ('&TBLOC' EQ '').ISVC                                    04300000
         AIF   ('&TBLOC'(1,1) NE '(').ISVC                              04350000
         ST    &TBLOC(1),4(1,0)                  STORE TCB ADDRESS      04400000
         AGO   .ISVC                                                    04450000
.LROUT   DS    0F                                                       04500000
         AIF   ('&LIST' EQ '').NOLIST                                   04550000
         AIF   ('&LIST'(1,1) EQ '(').E6                                 04600000
&NAME    DC    A(&LIST)                          LIST ADDRESS           04650000
         AGO   .TESTTBK                                                 04700000
.NOLIST  ANOP                                                           04750000
&NAME    DC    A(0)                              LIST ADDRESS           04800000
.TESTTBK AIF   ('&TBLOC' EQ '' OR '&TBLOC' EQ '''S''').NOTBLK           04850000
         AIF   ('&TBLOC'(1,1) EQ '(').E6                                04900000
         DC    A(&TBLOC)                         TCB ADDRESS            04950000
         AGO   .TESTFLD                                                 05000000
.NOTBLK  DC    A(0)                              TCB ADDRESS            05050000
.TESTFLD AIF   ('&FIELDS' EQ 'O').NOFIELD                               05100000
&LSW     SETB  1                                                        05150000
         AGO   .LOOP                                                    05200000
.NOFIELD DC A(0)                                                        05250000
         AGO   .END                                                     05300000
.LRETURN DC    AL1(&SUM)                         FIELD BYTE             05350000
         DC    AL1(&SUM2)    .         FIELD BYTE 2               20021 05400000
         DC    AL2(0) .                                           20021 05450000
         AGO   .END                                                     05500000
.E1      IHBERMAC 94               MORE THAN MAX VAL IN FIELDS OP ***** 05550000
         MEXIT                                                          05600000
.E2      IHBERMAC 35,,&MF          INVALID MF OPERAND SPECIFIED   ***** 05650000
         MEXIT                                                          05700000
.E3      IHBERMAC 67,,&FIELDS(&I1) INVALID FIELDS OP SPECIFIED-   ***** 05750000
         MEXIT                                                          05800000
.E4      IHBERMAC 34               LIST OP REQ'D-NOT SPECIFIED    ***** 05850000
         MEXIT                                                          05900000
.E5      IHBERMAC 23               FIELDS OP REQ'D-NOT SPECIFIED  ***** 05950000
         MEXIT                                                          06000000
.E6      IHBERMAC 69               INVALID REG NOTATION W/ MF=L   ***** 06050000
.END     MEND                                                           06100000
**/                                                                     06150000
*EXTRACT: MACRO                                                         06200000
*        KEYS(FIELDS,MF);                                               06250000
*        ANS('?'||MACLABEL||'EXTRACTP '||MACLIST||MACKEYS||';');        06300000
*%END;                                                                  06350000
