*/*                                                       */            00002200
*/*PROPRIETARY V3 STATEMENT                               */            00004200
*/*LICENSED MATERIALS - PROPERTY OF IBM                   */            00006200
*/*"RESTRICTED MATERIALS OF IBM"                          */            00008200
*/*5695-DF1                                               */            00010200
*/*(C) COPYRIGHT 1992  IBM CORP.                          */            00012200
*/*END PROPRIETARY V3 STATEMENT                           */            00015500
*/*   START OF PL/X COMMENT ENDED WITH %MACRO DEFINITION                00018800
         MACRO                                                          00020000
&NAME    FEOV  &DCB,&OPTION                                             00040000
         AIF   ('&DCB' EQ '').E1                                        00060000
         AIF   ('&OPTION'  EQ  '').CALL                                 00065000
         AIF   ('&OPTION'  EQ  'REWIND').CALL                           00070000
         AIF   ('&OPTION'  EQ  'LEAVE').CALL                            00075000
         AGO   .E2                                                      00080000
.CALL    ANOP                                                           00085000
&NAME    IHBINNRA  &DCB,,,,&OPTION                                      00090000
         SVC   31                                ISSUE FEOV SVC         00100000
         MEXIT                                                          00120000
.E2      IHBERMAC  49,,&OPTION                                          00126000
         MEXIT                                                          00132000
.E1      IHBERMAC 6                         NO DCB ADDR                 00140000
         MEND                                                           00160000
**/%FEOV:  MACRO KEYS(1:1(DCB_ADDR,DCB_NAME),TAPE_POSITION);            00210000
*  ANS('?' || MACLABEL || ' FEOVP ' || MACKEYS || ';') RESCAN SKIP      00260000
*    COL(5);                                                            00310000
* %END FEOV;                                                            00360000
