         MACRO                                                          01000003
&NAME    FIELD &FLD1,&FLD2,&FLD3,&FLD4,&FLD5,&FLD6,&FLD7,&FLD8          02000003
         GBLA  &C(7),&DE(7),&L(8),&SUM                                  03000003
         GBLB  &FT(7),&D(7),&IP(7),&IMP,&FRP,&FR(7)                     04000003
         LCLA  &X,&Z,&POS,&COUNT,&U                                     05000003
         LCLB  &F,&DA,&I,&S                                             06000003
&X       SETA  1                        COUNTER FOR FIELD NUMBERS       07000003
&SUM     SETA  0                                                        08000003
&IMP     SETB  0                                                        09000003
&FRP     SETB  0                                                        10000003
.A       ANOP                           RESET PARMS TO INITIAL VALUES   11000003
&FR(&X)  SETB  1                                                        12000003
&C(&X)   SETA  0                                                        13000003
&DE(&X)  SETA  0                                                        14000003
&L(&X)   SETA  0                                                        15000003
&FT(&X)  SETB  0                                                        16000003
&D(&X)   SETB  0                                                        17000003
&IP(&X)  SETB  0                                                        18000003
         AIF   ('&SYSLIST(&X)' EQ '').M IF FIELD NULL, GET NEXT FLD     19000003
&F       SETB  0                        SET ALL OPTIONS OFF             20000003
&DA      SETB  0                                                        21000003
&I       SETB  0                                                        22000003
&S       SETB  0                                                        23000003
&C(&X)   SETA  &SYSLIST(&X,1)           NUMBER OF DIGITS                25000003
         AIF   (&C(&X) LE 30).A1                                        25200003
         MNOTE 8,'***  IHB407  INVALID DIGIT LENGTH FOR FIELD &X'       25400003
.A1      ANOP                                                           25600003
         AIF   ('&SYSLIST(&X,2)' EQ '').B  ONLY DIGIT LTH GIVEN,BR      25800003
&L(&X)   SETA  &SYSLIST(&X,2)           NUMBER OF BYTES                 26000003
         AIF   (&L(&X) EQ 0).A2                                         27200003
         AIF   (&C(&X) LE (&L(&X)*2) AND &L(&X) LE 15).C       @YM00637 27400002
.A2      MNOTE 8,'***  IHB364  INVALID BYTE LENGTH FOR FIELD &X'        27600003
.B       ANOP                                                           29000003
&U       SETA  &C(&X)                                                   31000003
         AIF   ((&C(&X)-(&C(&X)/2)*2) NE 1).B1                          32000003
&U       SETA  &C(&X)+1                                                 33000003
.B1      ANOP                                                           34000003
&L(&X)   SETA  &U/2                     DEFAULT NUMBER OF BYTES         35000003
.C       ANOP                                                           35500003
&SUM     SETA  &SUM+&L(&X)                                              36000003
         AIF   ('&SYSLIST(&X,3)' EQ '').J   OPTIONS NOT SPEC.,BRANCH    38000003
&COUNT   SETA  K'&SYSLIST(&X,3)         NUMBER OF OPTIONS SPEC.         39000003
&POS     SETA  1                        POSITION IN OPTION LIST         40000003
.C1      ANOP                                                           41000003
&F       SETB  ('&SYSLIST(&X,3)'(&POS,1) EQ 'F' OR &F)     FIXED REC.   42000003
&DA      SETB  ('&SYSLIST(&X,3)'(&POS,1) EQ 'D' OR &DA)    DASH TRANS.  43000003
&I       SETB  ('&SYSLIST(&X,3)'(&POS,1) EQ 'I' OR &I)     IMAGE PROC.  44000003
&S       SETB  ('&SYSLIST(&X,3)'(&POS,1) EQ 'S' OR &S)     SYM.ERR.COR. 45000003
&COUNT   SETA  &COUNT-1                                                 46000003
         AIF   (&COUNT EQ 0).C2                                         47000003
&POS     SETA  &POS+1                                                   48000003
         AGO   .C1                                                      49000003
.C2      AIF   (&F NE 1).D                                              50000003
&FT(&X)  SETB  1                        FIXED LENGTH                    51000003
         AGO   .E                                                       52000003
.D       ANOP                                                           53000003
&FT(&X)  SETB  0                        VARIABLE LENGTH                 54000003
.E       AIF   (&DA NE 1).F                                             55000003
&D(&X)   SETB  1                        SEND DASHES                     56000003
         AGO   .G                                                       57000003
.F       ANOP                                                           58000003
&D(&X)   SETB  0                        DO NOT SEND DASHES              59000003
.G       AIF   (&I NE 1).H                                              60000003
&IP(&X)  SETB  1                        IMAGE PROCESS                   61000003
&IMP     SETB  1                                                        62000003
         AGO   .I                                                       63000003
.H       ANOP                                                           64000003
&IP(&X)  SETB  0                        NO IMAGE PROCESS                65000003
.I       AIF   (&S NE 1).J                                              66000003
&FRP     SETB  1                        PERFORM SYMBOL ERROR CORRECTION 67000003
&FR(&X)  SETB  0                                                        68000003
.J       ANOP                                                           69000003
         AIF   ('&SYSLIST(&X,4)' NE '').K                               70000003
&DE(&X)  SETA  0                        ZERO DIGIT ERRORS               71000003
         AGO   .M                                                       72000003
.K       AIF   (&IP(&X) EQ 1).L                                         73000003
         MNOTE 4,'***  IHB363  FIELD &X - ERROR DIGIT NO. SPEC., BUT NOX74000003
               T IP'                                                    74500003
.L       ANOP                                                           75000003
&DE(&X)  SETA  &SYSLIST(&X,4)           NO.OF ALLOWED DIGIT ERRORS      76000003
         AIF   (&DE(&X) LE 15).M                                        76200003
         MNOTE 8,'***  IHB416 INVALID NUMBER OF ERROR DIGITS SPECIFIED' 76400003
&DE(&X)  SETA  0                        DEFAULT NUMBER OF ERROR DIGITS  76600003
.M       ANOP                                                           77000003
&X       SETA  &X+1                     INCREMENT COUNTER               85000003
         AIF   (&X LT 8).A                                              86000003
         AIF   ('&SYSLIST(8)' EQ '').P  FIELD 8                         87000003
         AIF   ('&SYSLIST(8,1)' EQ '').S                       @ZA04485 87050003
&Z       SETA  &SYSLIST(8,1)                                            88000003
&L(8)    SETA  (&Z+1)/2                                                 88500003
         AGO   .T                                              @ZA04485 88550003
.S       ANOP                                                  @ZA04485 88600003
&L(8)    SETA  &SYSLIST(8,2)                                   @ZA04485 88650003
.T       ANOP                                                  @ZA04485 88700003
&SUM     SETA  &SUM+&L(8)                                               89000003
         AGO   .Q                                                       90000003
.P       ANOP                                                           91000003
&L(8)    SETA  0                                                        92000003
.Q       ANOP                                                           93000003
         AIF   (&SUM LE 36).R                                           94000003
         MNOTE 8,'***  IHB366 SUM OF FIELDS 0-8 GREATER THAN 36 BYTES'  94600003
.*                                                             @ZA00767 94650003
.R       AIF   ('&SYSLIST(1)' NE '' OR '&SYSLIST(2)' NE '' OR '&SYSLISTX95200003
               (3)' NE '' OR '&SYSLIST(4)' NE '' OR '&SYSLIST(5)' NE ''X95300003
                OR '&SYSLIST(6)' NE '' OR '&SYSLIST(7)' NE '').END      95400003
         AIF   ('&SYSLIST(8)' EQ '').END                                95500003
         MNOTE 4,'***  IHB411 FIELD 8 ONLY FIELD DEFINED'               95600003
.END     MEND                                                           96000003
