         MACRO                                                          03000003
&NAME    FM                                                             06000003
&NAME    DC    XL2'FC00'                FEED FROM MERGE                 09000003
         MEND                                                           12000003
