*/*                                                     */              00002200
*/*PROPRIETARY V3 STATEMENT                             */              00004400
*/*LICENSED MATERIALS - PROPERTY OF IBM                 */              00006600
*/*"RESTRICTED MATERIALS OF IBM"                        */              00008800
*/*5695-DF1                                             */              00011000
*/*(C) COPYRIGHT 1992  IBM CORP.                        */              00013200
*/*END PROPRIETARY V3 STATEMENT                         */              00016600
         MACRO                                                          00020000
&NAME    FREEDBUF &DECB,&TYPE,&DCB                                      00040000
         LCLB  &ERR(3)                                                  00050000
&ERR(1)  SETB  ('&DECB' EQ '')                                          00060000
&ERR(2)  SETB  ('&DCB' EQ '')                                           00070000
&ERR(3)  SETB  ('&TYPE' NE '' AND '&TYPE' NE 'D' AND '&TYPE' NE 'K')    00080000
         AIF   (&ERR(1)+&ERR(2)+&ERR(3) NE 0).E0                        00090000
&NAME    IHBINNRA &DCB,&DECB                                            00140000
         SVC   57                                ISSUE FREEDBUF SVC     00160000
         MEXIT                                                          00180000
.E0      AIF   (NOT &ERR(1)).E1                                         10180000
         IHBERMAC 7                     &DECB MISSING                   20180000
.E1      AIF   (NOT &ERR(2)).E2                                         30180000
         IHBERMAC 6                     &DCB MISSING                    40180000
.E2      AIF   (NOT &ERR(3)).MEND                                       50180000
         IHBERMAC 48,,&TYPE             &TYPE INVALID                   60180000
.MEND    MEND                                                           70180000
