*/*                                                   */                00002200
*/*PROPRIETARY V3 STATEMENT                           */                00004200
*/*LICENSED MATERIALS - PROPERTY OF IBM               */                00006200
*/*"RESTRICTED MATERIALS OF IBM"                      */                00008200
*/*5694-A01                                           */                00010200
*/*(C) COPYRIGHT 1992  IBM CORP.                      */                00012200
*/*END PROPRIETARY V3 STATEMENT                       */                00015500
*/*  START OF PL/X COMMENT ENDING ON %MACRO STATEMENT           @L2A    00018800
         MACRO                                                          00020000
&NAME    FREEPOOL &PAR,&DUMMY=                                          00040000
.*         RELEASE 23 DELETIONS/CHANGES                                 00050000
.*         RELEASE 22 DELETIONS/CHANGES                                 00052000
.*         RELEASE 21 DELETIONS/CHANGES                                 00054000
.*    001800-002800                                                     00056000
.*  $01 =  OZ83983,HDP1102,UZ78277,KACST2: ABEND30A IEBISAM      @01A   00058000
.*  $02 =  OZ86200,HDP1102,UZ39665,KACST2: ABEND80A PE83983      @02A   00059000
.*  $03 =  OZ87512,HDP1102,UZ39665,KACST2: ABEND30A BCB          @03A   00059500
.*  $L1 =  31BIT,JDZ1110,,SJPLRK:  QSAM BUFFERS ABOVE LINE       @L1A   00059700
.*  $L2 =  PLX,JDZ1110,,SJPLMET: PL/X SUPPORT                    @L2A   00059800
.*  $04 =  OW13183,HDZ11C0,951115,SJPLMM: BYPASS FREE IF BUFFERS        00064800
.*                                        ARE ABOVE THE LINE     @04A   00069800
.*  $L3 =  GT32K,HDZ11F0,990120,SJPLRK: BYPASS FREE IF BCBCBLEN         00071400
.*                                        FIELD EXISTS           @L3A   00073000
         AIF   ('&PAR' EQ '').E1                                        00074800
&NAME    IHBINNRA &PAR                                                  00080000
         TM    23(1),1                 IS BUFCB ALREADY FREED    @L1A   00094000
         BO    IHB&SYSNDX              IF SO, NO FREEMAIN        @L1A   00108000
         SLR   15,15                                             @L1A   00122000
         ICM   15,7,21(1)              LOAD BUFCB ADDRESS        @L1C   00136000
         L     14,0(,15)               GET 1ST WORD OF BUFCB     @04A   00138300
         LTR   14,14                   1ST BUFFER ADDR ZERO ?    @04A   00140600
         BNZ   *+12                    NO, BR TO DO FREEMAIN     @04A   00142900
         TM    4(15),X'30'             CAN MACRO DO FREEING?     @L3C   00145200
         BNZ   IHB&SYSNDX              NO,  BR TO BYPASS FREE    @L3C   00147500
         OI    23(1),1                 INDICATE NO BUFCB ADDR           00150000
         SR    14,14                   CLEAR REGISTER                   00200000
         SR    1,1                     CLEAR REGISTER            @01A   00221400
         ICM   1,3,6(15)               LOAD LENGTH OF BUFFERS    @02C   00264200
         IC    14,5(0,15)              NUMBER OF BUFFERS         @01A   00307000
         MR    0,14                    AREA TO BE FREED          @01A   00328400
         LA    1,8(0,1)                ACCOUNT FOR BCB           @02C   00350000
         TM    4(15),X'40'             IS BUFCB 16 BYTES       @ZA19719 00400000
         BNO   *+8                     BRANCH IF BUFCB = 8 BYTES        00430000
         LA    1,8(0,1)                ADJUST SIZE PLUS 8 BYTES   @03C  00470000
         LR    0,1                     LOAD LENGTH OF FREEMAIN    @02A  00510000
         LA    1,0(0,15)               LOAD AREA ADDRESS                00550000
         SVC   10                      ISSUE FREEMAIN SVC               00600000
IHB&SYSNDX DS    0H                                              @L1A   00625000
         MEXIT                                                          00650000
.E1      IHBERMAC 01                                                    00700000
         MEND                                                           00750000
**/%FREEPOOL: MACRO KEYS(DCB_NAME,DCB_ADDR);                   /*@L2A*/ 00800000
* ANS('? '||MACLABEL||' FREEPOOP '||MACKEYS||';') RESCAN SKIP; /*@L2A*/ 00850000
* %END FREEPOOL;                                               /*@L2A*/ 00900000
