*/*                                                                  */ 00002000
*/*PROPRIETARY V3 STATEMENT                                          */ 00004000
*/*LICENSED MATERIALS - PROPERTY OF IBM                              */ 00006000
*/*"RESTRICTED MATERIALS OF IBM"                                     */ 00008000
*/*5695-DF1                                                          */ 00010000
*/*(C) COPYRIGHT 1992  IBM CORP.                                     */ 00012000
*/*END PROPRIETARY V3 STATEMENT                                      */ 00015000
*/*                                                                  */ 00018000
.*   CHANGE ACTIVITY                                                    00018500
.*       DFSMS/MVS 1.1.0                                                00019000
.* $L1=31BIT,JDZ1110,,SJPLRK:  ALLOW INVOCATION IN 31-BIT MODE    @L1A  00019500
         MACRO                                                          00020000
&NAME    GETBUF  &DCB,&REG,&DUMMY=                                      00030000
         LCLB  &NOGO                                                    00040000
         AIF   ('&DCB' EQ '').E1                                        00060000
.R1      AIF   ('&REG' EQ '').E2                                        00080000
.R2      AIF   ('&REG(1)' EQ '0' OR '&REG(1)' EQ '14').E3               00090000
         AIF   (&NOGO EQ 1).TERM                                        00100000
&NAME    IHBINNRA &DCB                                                  00120000
         SLR   14,14                    CLEAR REGISTER            @L1A  00133300
         ICM   14,7,21(1)               LOAD BUFCB ADDRESS        @L1C  00146600
         L     &REG(1),0(0,14)                   LOAD BUFFER ADDRESS    00160000
         LTR   &REG(1),&REG(1)                   IS A BUFFER AVAILABLE  00180000
         BZ    *+10                    NO,RETURN ZERO                   00200000
         MVC   0(4,14),0(&REG(1))                YES,UPDATE BUFCB ADDR  00220000
         MEXIT                                                          00240000
.E1      IHBERMAC 06                                                    00260000
&NOGO    SETB  1                                                        00270000
         AGO   .R1                                                      00280000
.E2      IHBERMAC 18                                                    00300000
&NOGO    SETB  1                                                        00310000
         AGO   .R2                                                      00320000
.E3      IHBERMAC 37,,&REG                                              00340000
.TERM    MEND                                                           40340000
