*/*                                                                  */ 00002000
*/*PROPRIETARY V3 STATEMENT                                          */ 00004000
*/*LICENSED MATERIALS - PROPERTY OF IBM                              */ 00006000
*/*"RESTRICTED MATERIALS OF IBM"                                     */ 00008000
*/*5695-DF1                                                          */ 00010000
*/*(C) COPYRIGHT 1992  IBM CORP.                                     */ 00012000
*/*END PROPRIETARY V3 STATEMENT                                      */ 00015000
*/*                                                                  */ 00018000
*/* START OF PL/X COMMENT ENDING ON %MACRO STATEMENT             @L1A   00019000
         MACRO                                                          00020000
&NAME    GETPOOL &DCB,&NO,&LTH,&HIARCHY=                                00030000
.*                                                                      00031400
.********************************************************************   00032800
.* CHANGE ACTIVITY                                                      00034200
.* $01=OY09784,HDP2230,,JHM088: CLEAR HI ORDER BYTE OF DCB ADDR  @01A   00035600
.* $L1=PLX    ,JDZ1110,930930,SJPLMET: PL/X SUPPORT              @L1A   00036300
.********************************************************************   00037000
.*                                                                      00038400
         LCLA  &HX                                                      00040000
         AIF   ('&DCB' EQ '').E1                                        00060000
         AIF   ('&NO' EQ '').E2                                         00080000
         AIF   ('&HIARCHY' EQ '0' OR '&HIARCHY' EQ '1').HIARCHY         00084000
         AIF   ('&HIARCHY' NE '').E4                                    00088000
&HX      SETA  0                        NO HIARCHY SPEC'D.              00092000
         AGO   .TESTNO                                                  00096000
.HIARCHY ANOP                                                           00100000
&HX      SETA  &HIARCHY+1    HX IS 0,1, OR 2 FOR HIARCHY NONE,0, OR 1.  00104000
.TESTNO  ANOP                                                           00104600
&NAME    IHBINNRA &DCB                  LOAD DCB INTO REG 1             00104900
         LA    1,0(1)                   CLEAR THE HI ORDER BYTE  @01A   00105000
         AIF   ('&NO' NE '(0)').LOADR                                   00105200
         STH   &NO(1),24(0,1)                     STORE LENGTH IN DCB   00105900
         SRL   &NO(1),16(0)                       MOVE BUFFER NUMBER    00106600
         STH   &NO(1),22(0,1)                     STORE BUFFER NUMBER   00107300
.LOADR   ANOP                                                           00108000
         IHBINNRA ,&HX                  LOAD HX INTO REG 0              00114000
         AIF   ('&LTH' EQ '&LTH(1)' AND '&NO' EQ '&NO(1)').CONT         00120000
         AIF   ('&NO' EQ '&NO(1)').NUMB                                 00140000
         AIF   ('&NO' EQ '(0)').LINK                                    00160000
         STH   &NO(1),22(0,1)                    STORE BUFFER NUMBER    00180000
         AGO   .CHKLTH                                                  00200000
.NUMB    AIF   (T'&NO NE 'N').USEDC                                     00300000
         AIF   (&NO GT 4095).USEDC                                      00320000
         LA    14,&NO.(0,0)                      GET BUFFER NUMBER      00340000
         STH   14,22(0,1)                        STORE INTO DCB         00360000
         AGO   .CHKLTH                                                  00380000
.USEDC   B     *+6                               BRANCH AROUND VALUE    00400000
         DC    AL2(&NO)                          NUMBER OF BUFFERS      00420000
         MVC   22(2,1),*-2                       STORE INTO DCB         00440000
.CHKLTH  AIF   ('&NO' EQ '(0)').LINK                                    00460000
         AIF   ('&LTH' EQ '').E3                                        00480000
         AIF   ('&LTH' EQ '&LTH(1)').NUMBL                              00500000
         STH   &LTH(1),24(0,1)                   STORE BUFFER LENGTH    00520000
         AGO   .LINK                                                    00540000
.NUMBL   AIF   (T'&LTH NE 'N').USEDCL                                   00560000
         AIF   (&LTH GT 4095).USEDCL                                    00580000
         LA    14,&LTH.(0,0)                     GET BUFFER LENGTH      00600000
         STH   14,24(0,1)                        STORE INTO DCB         00620000
         AGO   .LINK                                                    00640000
.USEDCL  B     *+6                               BRANCH AROUND VALUE    00660000
         DC    AL2(&LTH)                         LENGTH OF BUFFERS      00680000
         MVC   24(2,1),*-2                       STORE INTO DCB         00700000
         AGO   .LINK                                                    00720000
.CONT    AIF   ('&LTH' EQ '').E3                                        00740000
         B     *+8                               BRANCH AROUND VALUES   00760000
         DC    AL2(&NO)                          NUMBER OF BUFFERS      00780000
         DC    AL2(&LTH)                         LENGTH OF BUFFERS      00800000
         MVC   22(4,1),*-4                       MOVE INTO DCB          00820000
.LINK    ANOP                                                           00830000
         LINK  EP=IECQBFG1                                              00850000
         MEXIT                                                          00860000
.E1      IHBERMAC 6                     DCB MISSING                     00880000
         MEXIT                                                          00900000
.E2      IHBERMAC 3                     NO MISSING                      00920000
         MEXIT                                                          00940000
.E3      IHBERMAC 4                     LTH MISSING                     00950000
         MEXIT                                                          00964000
.E4      IHBERMAC  195                                                  00968000
&HX      SETA  1                                                        00972000
         AGO   .TESTNO                                                  00976000
         MEND                                                           00980000
**/%GETPOOL: MACRO KEYS(1:1(DCB_NAME,DCB_ADDR),1:1(BUFFER_NUM),/*@L1A*/ 01030000
*       1:1(BUFFER_LEN));                                      /*@L1A*/ 01080000
*  ANS('? '||MACLABEL||' GETPOOLP '||MACKEYS||';') RESCAN SKIP;/*@L1A*/ 01130000
* %END GETPOOL;                                                /*@L1A*/ 01180000
