         MACRO                                                          00050000
&NAME    GTDEVSIZ &A                    PROTOTYPE                       00100000
.********************************************************************** 00150000
.*                                                                    * 00200000
.*NAME - GTDEVSIZ                                                     * 00250000
.*                                                                    * 00300000
.*FUNCTION - THE GTDEVSIZ MACRO ALLOWS THE USER TO FIND OUT THE       * 00350000
.*   PRESENT LINE SIZE AND NUMBER OF LINES FOR A TERMINAL.            * 00400000
.*                                                                    * 00405000
.*      COPYRIGHT = LICENSED MATERIALS - PROPERTY OF IBM              * 00410000
.*                                                                    * 00415000
.*                  "RESTRICTED MATERIALS OF IBM"                     * 00420000
.*                                                                    * 00425000
.*                  5695-117                                          * 00430000
.*                                                                    * 00435000
.*                  (C) COPYRIGHT IBM CORP. 1979                      * 00440000
.*                                                                    * 00445000
.*                                                                    * 00450000
.*       THE MACRO PROTOTYPE IS ABOVE                                 * 00500000
.*                                                                    * 00550000
.*       THE STANDARD FORM OF EXPANSION IS BELOW                      * 00600000
.*                                                                    * 00650000
.*&NAME  SR    1,1                      PREPARE PARM                  * 00700000
.*       LA    0,21                     LOAD ENTRY CODE               * 00750000
.*       SLL   0,24                     PUT ENTRY CODE IN LEFT MOST   * 00800000
.*       SVC   94                       ISSUE SVC                     * 00850000
.*                                                                    * 00900000
.********************************************************************** 00950000
         AIF   (N'&SYSLIST EQ 0).PARMOK      IS OPERAND BLANK           01000000
.PARMBAD ANOP                                                           01050000
         IHBERMAC 238                                                   01100000
.* THIS CALL TO ERMAC SAYS 'EXCESS POSITIONAL PARMS.' NONE ARE ALLOWED. 01150000
         MEXIT                          EXIT                            01200000
.PARMOK  ANOP                                                           01250000
&NAME    SR    1,1                      PREPARE PARM                    01300000
         LA    0,21                     LOAD ENTRY CODE                 01350000
         SLL   0,24                     PUT ENTRY CODE IN LEFT MOST     01400000
         SVC   94                       ISSUE SVC                       01450000
         MEND                                                           01500000
