         MACRO                                                          02000020
&NAME    GTSIZE &A                      PROTOTYPE                       04000020
.* NOCHANGE SHIPPED WITH JCLIN                                 @OY20024 58400011
.* C580000                                                     @OY22935 58800001
.* NOCHANGE SHIPPED WITH JCLIN                                 @OY26821 58999991
         AIF   ('&A' EQ '').PARMOK      IS OPERAND BLANK       @OY22935 59199991
.PARMBAD ANOP                                                           60000020
         IHBERMAC 238                                                   62000021
.* THIS CALL TO ERMAC SAYS 'EXCESS POSITIONAL PARMS.' NONE ARE ALLOWED. 62050021
         MEXIT                          EXIT                            64000020
.PARMOK  ANOP                                                           66000020
&NAME    SR    1,1                      PREPARE PARM                    68000020
         LA    0,11                     LOAD ENTRY CODE                 70000020
         SLL   0,24                     PUT ENTRY CODE IN LEFT MOST     72000020
         SVC   94                       ISSUE SVC                       74000020
         MEND                                                           76000020
