* A 00000000-99999999                                              @L8A 00025000
*********************************************************************   00050000
*                                                                       00100000
*  $MAC(ICHMM) COMP(SC1BN) PROD(SAF):                                   00150000
*                                                                       00200000
*  DESCRIPTIVE NAME = ROUTE INNER MACRO,PARAMETER LIST GENERATOR        00250000
*                                                                       00300000
*  COPYRIGHT =  5740-XYN, 5740-XYS COPYRIGHT IBM CORP 1976, 1982        00350000
*               LICENSED MATERIAL - PROGRAM PROPERTY OF IBM             00400000
*               REFER TO COPYRIGHT INSTRUCTIONS FORM NUMBER G120-2083   00450000
*                                                                       00500000
*  STATUS = OS/VS2 EBB1102                                              00550000
*                                                                       00600000
*  FUNCTION = THIS INNER MACRO MAY BE USED BY ANY MACRO TO GENERATE     00650000
*             A PARAMETER IN A PARAMETER LIST.                          00700000
*                                                                       00750000
*  MODULE TYPE = MACRO                                                  00800000
*                                                                       00850000
*  CHANGE ACTIVITY =                                                    00900000
*                    $T0=UZ90211,SAF/RF15,811015,CNTDSD:                00950000
*                    UZ90283                                   @ZA90283 01000000
*                    UZ90284                                   @ZA90284 01050000
*                    UZ90285                                   @ZA90285 01100000
*                                                                       01150000
**********************************************************************  01200000
         MACRO                                                          01250000
&NAME    ICHMM &PARM                                                    01300000
.* DEFINE GLOBAL SET VARIABLES                                          01350000
         GBLA  &ICHCT          ICHCT - A COUNTER USED TO                01400000
.*                             DETERMINE THE DISPLACEMENT IN THE        01450000
.*                             PARAMETER LIST WHERE THE PARAMETER       01500000
.*                             SHOULD BE PLACED.                        01550000
.*                             THE COUNTER IS INCREMENTED               01600000
.*                             BY 1 ON EACH CALL BEFORE EXIT.           01650000
         GBLB  &ICHLIST        ICHLIST - A FLAG WHICH INDICATES THE     01700000
.*                             FORMAT OF THE MACRO. FOR LIST FORMAT,    01750000
.*                             ICHLIST IS ON, FOR EXECUTE FORMAT, OFF.  01800000
.*                             FOR STANDARD FORMAT,IF ICHLIST IS ON,    01850000
.*                             IT IS THE LIST PASS OF STANDARD, IF      01900000
.*                             ICHLIST IS OFF, IT IS THE EXECUTE PASS.  01950000
         GBLB  &ICHNTFY        ICHNTFY - A GLOBAL INDICATOR WHICH IS    02000000
.*                             SET BY THE OUTER(CALLING) MACRO.         02050000
.*                             IF ICHNTFY IS ON, NO MNOTE WILL BE       02100000
.*                             ISSUED - IT WILL BE LEFT TO THE OUTER    02150000
.*                             MACRO TO DEAL WITH THE ERROR.            02200000
         GBLB  &ICHINER        ICHINER - A GLOBAL INDICATOR WHICH IS    02250000
.*                             USED TO COOMUNICATE TO THE OUTER MACRO   02300000
.*                             THAT AN ERROR WAS FOUND IN A PARAMETER.  02350000
         GBLC  &ICHMF          ICHMF - AN INDICATOR OF THE FORMAT       02400000
.*                             L, E, OR S.                              02450000
.*  DEFINE LOCAL SET VARIABLES                                          02500000
         LCLA  &DISP           DISP - THE DISPLACEMENT INTO THE         02550000
.*                             PARAMETER LIST WHERE THE PARAMETER       02600000
.*                             IS TO BE PLACED.                         02650000
.*  CALCULATE DISPLACEMENT OF PARAMETER INTO LIST                       02700000
&DISP    SETA  (&ICHCT*4)                                               02750000
         AIF   (NOT &ICHLIST).AVM003                                    02800000
.************************************************                       02850000
.*  GENERATE PARAMETER LIST ENTRY FOR LIST FORMAT                       02900000
.*  OR FOR LIST PASS OF STANDARD FORMAT.                                02950000
.************************************************                       03000000
         AIF   ('&PARM' EQ '').AVM001                                   03050000
         AIF   ('&PARM'(1,1) NE '(').AVM002                             03100000
         AIF   ('&ICHMF' EQ 'L').ERR01      REG INVALID FOR MF=L        03150000
.AVM001  ANOP                                                           03200000
         DC    A(0)                                                     03250000
         AGO   .AVMXIT                                                  03300000
.AVM002  ANOP                                                           03350000
         DC    A(&PARM)                                                 03400000
         AGO   .AVMXIT                                                  03450000
.*******************************************************                03500000
.*  INSERT VALUE INTO PARAMETER LIST FOR EXECUTE FORMAT,                03550000
.*  OR FOR EXECUTE PASS OF STANDARD FORMAT.                             03600000
.*******************************************************                03650000
.AVM003  ANOP                                                           03700000
         AIF   ('&PARM' EQ '').AVMXIT                                   03750000
         AIF   ('&PARM'(1,1) NE '(').AVM004                             03800000
         ST    &PARM(1),&DISP.(1)                                       03850000
         AGO   .AVMXIT                                                  03900000
.AVM004  ANOP                                                           03950000
         AIF   ('&ICHMF' EQ 'S').AVMXIT                                 04000000
         LA    15,&PARM                                                 04050000
         ST    15,&DISP.(1)                                             04100000
         AGO   .AVMXIT                                                  04150000
.*   ERROR MESSAGE                                                      04200000
.ERR01   ANOP                                                           04250000
&ICHINER SETB  1           INDICATE ERROR FOUND                         04300000
         AIF   (&ICHNTFY).AVMXIT   ICHNTFY ON - LEAVE MACRO NORMALLY    04350000
         MNOTE 12,'***INVALID FORMAT FOR LIST FORM - &PARM'             04400000
         MEXIT                                                          04450000
.AVMXIT  ANOP                                                           04500000
&ICHCT   SETA  &ICHCT+1                                                 04550000
         MEND                                                           04600000
