*/********************************************************************/ 00050000
*/*                                                                  */ 00100000
*/* $MAC(IDALKADD) COMP(DF122):                                      */ 00150000
*/*                                                                  */ 00200000
*/* MACRO NAME: IDALKADD                                             */ 00250000
*/*                                                                  */ 00300000
*/* DESCRIPTION: LOCK-FOR-ADD VSAM FUNCTION                          */ 00350000
*/*                                                                  */ 00400000
*/* STATUS: VERSION 1 DFSMS RELEASE 3.0                              */ 00450000
*/*                                                                  */ 00500000
*/* COPYRIGHT =                                                      */ 00550000
*/*                                                                  */ 00600000
*/*PROPRIETARY V3 STATEMENT                                          */ 00650000
*/*LICENSED MATERIALS - PROPERTY OF IBM                              */ 00700000
*/*"RESTRICTED MATERIALS OF IBM"                                     */ 00750000
*/*5695-DF1                                                          */ 00800000
*/*(C) COPYRIGHT 1995  IBM CORP.                                     */ 00850000
*/*END PROPRIETARY V3 STATEMENT                                      */ 00900000
*/*                                                                  */ 01000000
*/*   CHANGE ACTIVITY =                                              */ 01050000
*/* $L0=DFSMS,HDZ11C0,930326,SJPLRG: VSAM RLS                        */ 01100000
*/********************************************************************/ 01150000
         MACRO                                                          01200000
&NAME    IDALKADD  &RPL=                                                01250000
         AIF   ('&RPL' NE '').OKAY                                      01300000
         IDAERMAC 2,RPL                                                 01350000
         MEXIT                                                          01400000
.OKAY    ANOP                                                           01450000
&NAME    DS    0H                                                       01500000
         AIF   ('&RPL'(1,1) EQ '(').RPLREG                              01550000
         LA    1,&RPL                   LOAD RPL ADDR                   01600000
         AGO   .AREG                                                    01650000
.RPLREG  AIF   ('&RPL' EQ '(1)').AREG   IF RPL=(1),SKIP LR INSTRUCTION  01700000
         LR    1,&RPL(1)                LOAD RPL ADDR IN REG.1          01750000
.AREG    LA    0,21                     INDICATE LKADD IN REG           01800000
         L     15,24(1)                 LOAD ACB ADDR FROM RPL          01850000
         L     15,8(15)                 LOAD AM/0 INTERFACE RTN ADDR    01900000
         BALR  14,15                    LINK TO INTERFACE ROUTINE       01950000
         MEND                                                           02000000
