*        %GOTO SMF64PL1;                                                00050000
         MACRO                                                          00100000
&NAME    IDASMF64                                                       00150000
* %SMF64PL1:;                                                           00200000
*/********************************************************************/ 00250000
*/*                                                                  */ 00300000
*/*  $MAC(IDASMF64):                                                 */ 00350000
*/*                                                                  */ 00400000
*/*  MACRO NAME = IDASMF64                                           */ 00450000
*/*                                                                  */ 00500000
*/*  DESCRIPTION: MAPS SMF RECORD TYPE 64                            */ 00550000
*/*                                                                  */ 00600000
*/*PROPRIETARY V3 STATEMENT                                          */ 00642800
*/*LICENSED MATERIALS - PROPERTY OF IBM                              */ 00685600
*/*"RESTRICTED MATERIALS OF IBM"                                     */ 00728400
*/*5695-DF1                                                          */ 00771200
*/*(C) COPYRIGHT 1993,1995  IBM CORP.                                */ 00814000
*/*END PROPRIETARY V3 STATEMENT                                      */ 00856800
*/*                                                                  */ 00900000
*/*  FUNCTION =                                                      */ 00950000
*/*                                                                  */ 01000000
*/*  This is the macro that includes the declarations for the        */ 01050000
*/*  SMF Type 64 record.                                             */ 01100000
*/*                                                                  */ 01150000
*/*  STATUS = DFSMS/MVS 1.3.0                                        */ 01170000
*/*                                                                  */ 01190000
*/*  METHOD OF ACCESS =                                              */ 01210000
*/*                                                                  */ 01230000
*/*    ASM - User includes Record Type on IFASMFR macro invocation   */ 01250000
*/*          Examples:                                               */ 01300000
*/*          - IFASMFR 64                                            */ 01350000
*/*          - IFASMFR (...,64,...)                                  */ 01400000
*/*                                                                     01450000
.*    PL/S - User defines a macro variable IFAR64 where 64=Record    *  01500000
.*         type being requested, INCLUDEs the IFASMFR macro and      *  01550000
.*         declares the basing pointer for the record mapping.       *  01600000
.*                                                                    * 01650000
.*         Example:                                                   * 01700000
.*                                                                   *  01750000
.*         - %IFAR64 = 'YES'                                         *  01800000
.*           DCL SMF64PTR PTR(31)                                    *  01850000
.*           %INCLUDE SYSLIB(IFASMFR)                                 * 01900000
*                                                                    */ 01950000
*/*  CHANGE ACTIVITY =                                               */ 02000000
*/*                                                                  *  02050000
.* NOTE: All record mapping changes must be forwarded to the SMF      * 02100000
.*       writer for inclusion in the SMF Manual                       * 02150000
*                                                                    */ 02200000
*/*A - Define new macro for record mapping                       @00A*/ 02250000
*/*                                                                  */ 02300000
*/*$00=DFSMS/MVS,JDZ1110,,SJPCJRB : DFP Record Mappings Transfer @00A*/ 02350000
*/*$L0=DFSMS,HDZ11C0,930325,SJPCJRB : RLS                        @L0A*/ 02368700
*/*$LC=DFSMS/MVS,HDZ11B0,930505,SJPLREB: COMPRESSION             @LCA*/ 02387500
*/*$LD=DFSMS/MVS,HDZ11C0,930505,SJPLTMF:TIDY UP COMPILER WARNINGS@LDA*/ 02418700
*/*$LE=DFSMS,HDZ11B0,940228,SJPLBAW: DFSMS/MVS 1.2 PARTIAL REL   @LEA*/ 02434300
*/*$L8=DFSMS,HDZ11C0,940606,SJPLCEB: UCBVSCR                     @L8A*/ 02442100
*/*SMF62/SMF42 SUPPORT FOR STRATIS                           @WA04839*/ 02446000
*/*$L9=DFSMS,HDZ11C0,950504,SJPLTMF: DFSMS/MVS 1.3 RLS Support   @L9A*/ 02448000
*/*$EA=DFSMS,HDZ11C0,940623,SJPLDKT: EXTENDED ADDRESSABILITY     @EAA*/ 02449000
*/*$SM=DFSMS,HDZ11F0,090199,SJPLVM: SMF RECORDING FOR SMB        @SMA*/ 02449490
*/*CORRECT ASSEMBLER MACRO                                   @WA45924*/ 02449680
*/*MAKE IT REAL BILINGUAL MACRO - ASSEMBLER AND PLX          @WA51554*/ 02449770
*/*                                                                  */ 02450000
*/********************************************************************/ 02500000
*        %GOTO SMF64PLS;                                                02550000
*                                                                       02600000
* THIS DSECT DEFINES THE FORMAT FOR RECORD TYPE 64 (VSAM DATA           02650000
* SET STATUS AT CLOSE OR EOV TIME). RECORD LENGTH IS VARIABLE.          02700000
* MINIMUM OF 254 BYTES.                                                 02750000
*                                                                       02800000
         DS    0F                   ALIGN TO FULLWORD BOUNDARY          02850000
SMFRCD64 EQU   *                    HEADER SEGMENT                      02900000
SMF64LEN DS    BL2'0'               RECORD LENGTH                       02950000
SMF64SEG DS    BL2'0'               SEGMENT DESCRIPTOR                  03000000
SMF64FLG DC    BL1'0'               HEADER FLAG BYTE                    03050000
SMF64RTY DC    BL1'0'               RECORD TYPE 64                      03100000
SMF64TME DC    BL4'0'               TOD, USING FORMAT FROM TIME         03150000
*                                   MACRO WITH BIN INTERVAL             03200000
SMF64DTE DC    PL4'0000'            DATE IN PACKED DECIMAL FORM         03250000
*                                   00YYDDDF (F IS THE SIGN)            03300000
SMF64SID DC    CL4' '               SYSTEM IDENTIFICATION               03350000
SMF64JBN DC    CL8' '               JOBNAME                             03400000
SMF64RST DC    BL4'0'               READER START TIME (IN 100THS        03450000
*                                   SECONDS)                            03500000
SMF64RSD DC    PL4'0000'            READER START DATE                   03550000
SMF64UIF DC    CL8' '               USER IDENTIFICATION FIELD           03600000
SMF64RIN DC    BL1'0'               RECORDING INDICATORS                03650000
*                                   BIT MEANING WHEN SET                03700000
*                                   BIT 0 - RECORD WRITTEN BY CLOSE     03750000
*                                   BIT 1 - RECORD WRITTEN BY EOV-      03800000
*                                           VOLUME SWITCH               03850000
*                                   BIT 2 - RECORD WRITTEN BY EOV-      03900000
*                                           OUT OF SPACE                03950000
*                                   BIT 3   RESERVED               @L0C 03975000
*                                   BIT 4 - CLOSE TYPE=T           @L0A 04000000
*                                   BITS 5-7 RESERVED              @L0A 04025000
SMF64DTY DC    BL1'0'               DATA SET TYPE                       04050000
*                                   BIT MEANING WHEN SET                04100000
*                                   BIT 0 - DATA SET                    04150000
*                                   BIT 1 - INDEX                       04200000
SMF64EF  EQU   X'20'                BIT 2 - EXTENDED FORMAT        @LCA 04220000
SMF64CMP EQU   X'10'                BIT 3 - COMPRESSED             @LCA 04240000
SMF64RLS EQU   X'08'                DATASET WAS ACCESSED BY RLS    @L9A 04260000
SMF64DIS EQU   X'04'                DATASET ACCESSED BY RLS BUT    @L9A 04270000
*                                   MMF WAS DISABLED               @L9A 04280000
SMF64EA  EQU   X'02'                BIT 6 - EXTENDED ADDRESSABLE   @EAA 04285000
*                                   PREV. RBA FIELDS ARE NOW CIS   @EAA 04290000
*                                   BIT 7 - RESERVED               @EAC 04295000
SMF64CNM DC    CL44' '              CATALOG NAME                        04300000
SMF64DNM DC    CL44' '              DATA SET NAME                       04350000
SMF64NTR DC    BL2'0'               NUMBER OF TRACKS REQUIRED           04400000
SMF64CHR DC    BL4'0'               CURRENT HIGH RBA                    04450000
         ORG   SMF64CHR                                            @EAA 04466600
SMF64CHC DC    BL4'0'               CURRENT HIGH CI                @EAA 04483200
SMF64ESL DC    BL2'0'               EXTENT SEGMENT LENGTH               04500000
SMF64FEX EQU   *                    EXTENT TABLE - ONE PER VOLUME       04550000
*                                   ONLINE AT TIME RECORD WRITTEN       04600000
SMF64FCC DC    BL4'0'               FROM CCHH                           04650000
SMF64TCC DC    BL4'0'               TO CCHH                             04700000
SMF64VSN DC    CL6' '               VOLUME SERIAL NUMBER                04750000
SMF64CUU DC    BL2'0'               DEVICE NUMBER                       04800000
SMF64IND DC    BL2'0'               RESERVED                       @L8C 04850000
SMF64UTY DC    BL4'0'               UNIT TYPE - UCBTYPE                 04900000
SMF64RV1 DC    CL4' '               RESERVED                            04950000
         ORG   SMF64FEX                                                 05000000
SMF64STS EQU   *                    DATA SET STATISTICS AT OPEN         05050000
*                                   TIME                                05100000
SMF64SLN DC    BL4'0'               STATISTICS SEGMENT LENGTH           05150000
SMF64NIL DC    BL4'0'               NUMBER INDEX LEVEL                  05200000
SMF64NEX DC    BL4'0'               NUMBER EXTENTS                      05250000
SMF64NLR DC    BL4'0'               NUMBER LOGICAL RECORDS              05300000
SMF64NDE DC    BL4'0'               NUMBER DELETES                      05350000
SMF64NIN DC    BL4'0'               NUMBER INSERTS                      05400000
SMF64NUP DC    BL4'0'               NUMBER UPDATES                      05450000
SMF64NRE DC    BL4'0'               NUMBER RETRIEVES                    05500000
SMF64NFS DC    BL4'0'               NUMBER FREE SPACE-UNUSED CI S       05550000
SMF64NCS DC    BL4'0'               NUMBER CI SPLITS                    05600000
SMF64NAS DC    BL4'0'               NUMBER CA SPLITS                    05650000
SMF64NEP DC    BL4'0'               NUMBER EXCPS COUNT                  05700000
* DATA SET STATISTICS FOR THIS OPEN                                     05750000
SMF64DIL DC    BL4'0'               NUMBER INDEX LEVEL                  05800000
SMF64DEX DC    BL4'0'               NUMBER EXTENTS                      05850000
SMF64DLR DC    BL4'0'               NUMBER LOGICAL RECORDS              05900000
SMF64DDE DC    BL4'0'               NUMBER DELETES                      05950000
SMF64DIN DC    BL4'0'               NUMBER INSERTS                      06000000
SMF64DUP DC    BL4'0'               NUMBER UPDATES                      06050000
SMF64DRE DC    BL4'0'               NUMBER RETRIEVES                    06100000
SMF64DFS DC    BL4'0'               NUMBER FREE SPACE                   06150000
SMF64DCS DC    BL4'0'               NUMBER CI SPLITS                    06200000
SMF64DAS DC    BL4'0'               NUMBER CA SPLITS                    06250000
SMF64DEP DC    BL4'0'               NUMBER EXCPS COUNT                  06300000
SMF64DBS DC    BL4'0'               PHYSICAL BLOCK SIZE                 06350000
SMF64DCI DC    BL4'0'               CONTROL INTERVAL SIZE               06400000
SMF64DLS DC    BL4'0'               MAX. LOGICAL RECORD LNG.            06450000
SMF64DKL DC    BL2'0'               KEY LENGTH                          06500000
SMF64DDN DC    CL8' '               DD NAME                             06550000
SMF64STR DC    BL1'0'               ACBSTRNO - STRING NUMBER            06600000
SMF64BNO DC    BL1'0'               BUFDRNO  - ACTUAL NUMBER OF         06650000
*                                   BUFFERS                             06700000
SMF64BSP DC    BL4'0'               ACBBUFSP - BUFFERSPACE              06750000
SMF64BFD DC    BL2'0'               ACBBUFND - NO. DATA BUFFERS         06800000
SMF64BFI DC    BL2'0'               ACBBUFNI - NO. INDEX BUFFERS        06850000
SMF64CLN DC    CL44' '              CLUSTER NAME (JFCBDSN)              06900000
SMF64PLH DC    BL2'0'               PLHCNT - ACTUAL NUMBER OF           06950000
*                                   CONCURRENT STRINGS                  07000000
SMF64MAC DC    CL4' '               ACBMACRF FIELDS                     07050000
         ORG   SMF64MAC             DEFINE ACBMACRF SUB-FIELDS          07100000
SMF64MC1 DC    CL1' '               ACBMACR1 FIELD                      07150000
SMF64MC2 DC    CL1' '               ACBMACR2 FIELD                      07200000
SMF64MC3 DC    CL1' '               ACBMACR3 FIELD                      07250000
SMF64MC4 DC    CL1' '               ACBMACR4 FIELD                @SMA  07300990
*                                                                1@SMD  07301980
SMF64SMB DC    BL1'0'               SMB INFORMATION               @SMA  07302970
*                                   BIT                           @SMA  07303960
SMF64ACC EQU   X'80'                0-USER SPECIFIED ACCBIAS ON JCL     07304950
*                                     AMP (ACCBIAS=DO|SO|DW|SW)   @SMA  07305940
SMF64SYS EQU   X'40'                1-USER REQUESTED ON JCL AMP OR      07306930
*                                     DATACLAS THAT SMB IS TO           07307920
*                                     DETERMINE ACCBIAS           @SMA  07308910
SMF64DO  EQU   X'20'                3-BIAS=DO USED                @SMA  07309900
SMF64SO  EQU   X'10'                4-BIAS=SO USED                @SMA  07310890
SMF64SW  EQU   X'08'                5-BIAS=SW USED                @SMA  07311880
SMF64DW  EQU   X'04'                6-BIAS=DW USED                @SMA  07312870
SMF64CO  EQU   X'02'                7-BIAS=CO USED                @SMA  07313860
SMF64CR  EQU   X'01'                8-BIAS=CR USED                @SMA  07314850
*                                                                       07315840
SMF64RSC  DC   BL1'0'               SMB INFORMATION               @SMA  07316830
*                                   BIT                           @SMA  07317820
SMF64VSP EQU   X'80'                0-DO, USER SPECIFED SMBVSP    @SMA  07318810
SMF64HWT EQU   X'40'                1-DO, USER SPECIFED SMBHWT    @SMA  07319800
SMF64BUF EQU   X'20'                2-RMODE31=BUFF USED           @SMA  07320790
SMF64CB  EQU   X'10'                3-RMODE31=CB USED             @SMA  07321780
SMF64IVS EQU   X'08'                4-INSUFFICIENT VIRTUAL        @SMA  07322770
*                                     STORAGE FOR DO              @SMA  07323760
*                                   5-RESERVED, FUTURE DO WITH    @SMA  07324750
*                                     REDUCED RESOURCE            @SMA  07325740
*                                   6-RESERVED, FUTURE DO WITH    @SMA  07326730
*                                     MINIMUM RESOURCES           @SMA  07327720
*                                   7-RESERVED                    @SMA  07328710
SMF64SIO DC    BL4'0'               NUMBER OF REQUESTS TO IDAVJSIO      07350000
SMF64HIT DC    BL4'0'               I/O NUMBER SATISFIED FROM CACHE     07400000
SMF64WTS DC    BL4'0'               TIMES USER SUSPENDED FOR I/O        07450000
SMF64MIS DC    BL4'0'               NUMBER OF PHYSICAL I/O DONE         07500000
SMF64IOS DC    BL4'0'               PHYSICAL I/O DONE IN CACHE          07550000
SMF64SDS DC    XL8'00'              SOURCE DATA SET SIZE AT OPEN  @LCA  07552900
*                                   FOR COMPRESSED DATA SET. VALID@LCA  07555800
*                                   ONLY IF SMF64CMP IS SET ON.   @LCA  07558700
SMF64CDS DC    XL8'00'              COMPRESSED DATA SET SIZE AT   @LCA  07561600
*                                   OPEN. VALID ONLY IF SMF64CMP  @LCA  07564500
*                                   IS SET ON                     @LCA  07567400
SMF64CSS DC    XL8'00'              CHANGE IN SOURCE DATA SET SIZE@LCA  07570300
*                                   IN THIS OPEN FOR COMPRESSED   @LCA  07573200
*                                   DATA SET. VALID ONLY IF       @LCA  07576100
*                                   SMF64CMP IS SET ON            @LCA  07579000
SMF64CCS DC    XL8'00'              CHANGE IN COMPRESSED DATA SET @LCA  07581900
*                                   SIZE IN THIS OPEN. VALID ONLY @LCA  07584800
*                                   IF SMF64CMP IS SET ON.        @LCA  07587700
SMF64DTK DC    XL36'00'             DICTIONARY TOKEN FOR          @LCA  07590600
*                                   COMPRESSED DATA SET. VALID    @LCA  07593500
*                                   ONLY IF SMF64CMP IS SET ON    @LCA  07596400
SMF64TRK DC    BL4'0'               NUMBER OF TRACKS RELEASED DURING    07597600
*                                   PARTIAL RELEASE PROCESSING    @LEA  07598800
* RLS STATISTICS                                                  @L9A  07598900
SMF64BMH DC    BL4'0'               NUMBER OF REQUESTS WHERE THE  @L9A  07599000
*                                   DATA  WAS OBTAINED FROM THE   @L9A  07599100
*                                   LOCAL SHARED BUFFER POOL      @L9A  07599200
*                                   (BMF)                         @L9A  07599300
SMF64CFH DC    BL4'0'               NUMBER OF REQUESTS WHERE THE  @L9A  07599400
*                                   DATA WAS OBTAINED FROM THE    @L9A  07599500
*                                   DFSMS COUPLING FACILITY CACHE @L9A  07599600
*                                   STRUCTURE                     @L9A  07599700
SMF64RIO DC    BL4'0'               NUMBER OF REQUESTS WHERE THE  @L9A  07599800
*                                   DATA WAS OBTAINED FROM DASD   @L9A  07599900
SMF64DOT DS    0CL8                                               @SMA  07599910
SMF64TIM DC    CL4' '               DATA SET OPEN TIME            @SMA  07599920
SMF64DT  DC    CL4' '               DATA SET OPEN DATE            @SMA  07599930
*                                                                 @SMA  07599940
SMF64FG1 DC    BL1'0'               MISCELLANEOUS INFORMATION     @SMA  07599950
*                                   BIT MEANING WHEN SET          @SMA  07599960
SMF64CKP EQU   X'80'                1:CHECKPOINT HAS BEEN ISSUED  @SMA  07599970
*                                   2-8:RESERVED                  @SMA  07599980
SMF64RV2 DC    CL3' '               RESERVED                      @SMA  07599990
*                                                                       07600000
*                                                                       07625000
         MEND                                                           07700000
         AGO   .END                 SKIP PLX                  @WA51554  07719990
 %SMF64PLS:;                                                            07750000
                                                                        07800000
    DCL 1 SMFRCD64 BASED(SMF64PTR) BDY(WORD),                           07850000
         2 SMF64FIX,              /* NON-VARIABLE PART OF STRUCTURE     07883300
                                                             @WA04839*/ 07916600
 /* RECORD TYPE 64 - VSAM CLOSE/EOV STATUS                           */ 07950000
 /* WRITTEN WHEN A VSAM DS IS CLOSED, REACHES EOV OR NO MORE SPACE   */ 08000000
 /* IS AVAILABLE ON A VOLUME                                         */ 08050000
                                                                        08100000
         3 SMF64LEN FIXED(15),    /* RDW RECORD LENGTH               */ 08150000
         3 SMF64SEG FIXED(15),    /* RDW SEGMENT DESCRIPTOR          */ 08200000
         3 SMF64FLG BIT(8),       /* OPERATING ENVIRONMENT           */ 08250000
         3 SMF64RTY FIXED(8),     /* RECORD TYPE 64                  */ 08300000
         3 SMF64TME FIXED(31) BDY(HWORD), /* TOD RECORD WRITTEN      */ 08350000
         3 SMF64DTE CHAR(4),      /* DATE RECORD WRITTEN             */ 08400000
         3 SMF64SID CHAR(4),      /* SYSTEM ID FROM INSTALLATION     */ 08450000
         3 SMF64JBN CHAR(8),      /* JOB NAME                        */ 08500000
         3 SMF64RST FIXED(31) BDY(HWORD), /* READER START TOD(.01 SEC)*/08550000
         3 SMF64RSD CHAR(4),      /* READER START DATE               */ 08600000
         3 SMF64UIF CHAR(8),      /* USER IDENTIFICATION FIELD       */ 08650000
         3 SMF64RIN BIT(8),       /* RECORD INDICATORS               */ 08700000
          5 SMF64CLO BIT(1),      /* WRITTEN BY CLOSE                */ 08750000
          5 SMF64VSW BIT(1),      /* WRITTEN BY EOV-VOL SWITCH       */ 08800000
          5 SMF64OSP BIT(1),      /* WRITTEN BY EOV-OUT OF SPACE     */ 08850000
          5 * BIT(1),             /* RESV                        @LCA*/ 08875000
          5 SMF64TCL BIT(1),      /* CLOSE TYPE=T                @LCA*/ 08900000
          5 * BIT(3),             /* RESV                        @LCC*/ 08925000
         3 SMF64DTY BIT(8),       /* DATA SET TYPE                   */ 08950000
          5 SMF64DTA BIT(1),      /* DATA                            */ 09000000
          5 SMF64IDX BIT(1),      /* INDEX                           */ 09050000
          5 SMF64EF  BIT(1),      /* EXTENDED FORMAT             @LCA*/ 09075000
          5 SMF64CMP BIT(1),      /* COMPRESSED FORMAT           @LCA*/ 09100000
          5 SMF64RLS BIT(1),      /* DATASET WAS ACCESSED BY RLS @L9A*/ 09110000
          5 SMF64DIS BIT(1),      /* DATASET ACCESSED BY RLS BUT        09120000
                                     MMF WAS DISABLED            @L9A*/ 09130000
          5 SMF64EA  BIT(1),      /* EXT ADDR - PASS BACK CI'S   @EAA*/ 09136600
          5 * BIT(1),             /* RESV                        @EAC*/ 09143200
         3 SMF64CNM CHAR(44),     /* CATALOG NAME                    */ 09150000
         3 SMF64DNM CHAR(44),     /* DATA SET NAME                   */ 09200000
         3 SMF64NTR FIXED(15),    /* # OF TRACKS REQUIRED            */ 09250000
         3 SMF64CHR CHAR(4),      /* CURRENTLY HIGH RBA              */ 09300000
           5 SMF64CHC CHAR(4),    /* CURRENTLY HIGH CI           @EAA*/ 09316600
         3 SMF64ESL FIXED(15),    /* EXTENT SEGMENT LENGTH           */ 09333300
         3 SMF64EXT CHAR(0);      /* FIRST EXTENT                @LCC*/ 09366600
    DCL 1 SMF64FEX BASED,         /* EXTENT TABLE, ONE PER VOLUME       09400000
                                  ONLINE AT TIME TYPE 64 WRITTEN     */ 09450000
         3 SMF64FCC CHAR(4),      /* THE FROM CCHH                   */ 09500000
         3 SMF64TCC CHAR(4),      /* THE TO CCHH                     */ 09550000
         3 SMF64VSN CHAR(6),      /* VOLUME SERIAL NUMBER            */ 09600000
         3 SMF64CUU CHAR(2),      /* DEVICE NUMBER                   */ 09650000
           5 * BIT(1),            /* RESERVED                    @L8C*/ 09683300
         3 SMF64IND CHAR(2),      /* RESERVED                    @L8C*/ 09716600
         3 SMF64UTY CHAR(4),      /* UNIT TYPE                       */ 09750000
         3 * CHAR(4);             /* RESV                            */ 09800000
    DCL 1 SMF64STS BASED BDY(WORD), /* DATA SET STATISTICS           */ 09850000
                                  /* STATISTICS AT OPEN TIME         */ 09900000
         3 SMF64SLN FIXED(31),    /* STAT SEGMENT LENGTH             */ 09950000
         3 SMF64NIL FIXED(31),    /* # OF INDEX LEVELS               */ 10000000
         3 SMF64NEX FIXED(31),    /* # OF EXTENTS                    */ 10050000
         3 SMF64NLR FIXED(31),    /* # OF LOGICAL RECORDS            */ 10100000
         3 SMF64NDE FIXED(31),    /* # OF DELETES                    */ 10150000
         3 SMF64NIN FIXED(31),    /* # OF INSERTS                    */ 10200000
         3 SMF64NUP FIXED(31),    /* # OF UPDATES                    */ 10250000
         3 SMF64NRE FIXED(31),    /* # OF RETRIEVES                  */ 10300000
         3 SMF64NFS FIXED(31),    /* # OF FREE SPACE(UNUSED CI'S)    */ 10350000
         3 SMF64NCS FIXED(31),    /* # OF CI SPLITS                  */ 10400000
         3 SMF64NAS FIXED(31),    /* # OF CA SPLITS                  */ 10450000
         3 SMF64NEP FIXED(31),    /* # OF EXCPS                      */ 10500000
                                  /* STAT'S FOR THIS OPEN            */ 10550000
         3 SMF64DIL FIXED(31),    /* # OF INDEX LEVELS               */ 10600000
         3 SMF64DEX FIXED(31),    /* # OF EXTENTS                    */ 10650000
         3 SMF64DLR FIXED(31),    /* # OF LOGICAL RECORDS            */ 10700000
         3 SMF64DDE FIXED(31),    /* # OF DELETES                    */ 10750000
         3 SMF64DIN FIXED(31),    /* # OF INSERTS                    */ 10800000
         3 SMF64DUP FIXED(31),    /* # OF UPDATES                    */ 10850000
         3 SMF64DRE FIXED(31),    /* # OF RETRIEVES                  */ 10900000
         3 SMF64DFS FIXED(31),    /* # OF FREE SPACE                 */ 10950000
         3 SMF64DCS FIXED(31),    /* # OF CI SPLITS                  */ 11000000
         3 SMF64DAS FIXED(31),    /* # OF CA SPLITS                  */ 11050000
         3 SMF64DEP FIXED(31),    /* # OF EXCPS                      */ 11100000
         3 SMF64DBS FIXED(31),    /* PHYSICAL BLOCKSIZE              */ 11150000
         3 SMF64DCI FIXED(31),    /* CONTROL INTERVAL SIZE           */ 11200000
         3 SMF64DLS FIXED(31),    /* MAX. LOGICAL REC LENGTH         */ 11250000
         3 SMF64DKL FIXED(15),    /* KEY LENGTH                      */ 11300000
         3 SMF64DDN CHAR(8),      /* DD NAME                         */ 11350000
         3 SMF64STR PTR(8),       /* ACBSTRNO - STRING NUMBER        */ 11400000
         3 SMF64BNO PTR(8),       /* BUFDRNO  - ACTUAL NUMBER OF        11450000
                                     BUFFERS                         */ 11500000
         3 SMF64BSP FIXED(31),    /* ACBBUFSP - BUFFER SPACE         */ 11550000
         3 SMF64BFD FIXED(15),    /* ACBBUFND - NUM DATA BUFF        */ 11600000
         3 SMF64BFI FIXED(15),    /* ACBBUFNI - NUM INDEX BUFF       */ 11650000
         3 SMF64CLN CHAR(44),     /* CLUSTER NAME (JFCBDSN)          */ 11700000
         3 SMF64PLH FIXED(15),    /* PLHCNT - ACTUAL NUMBER OF          11750000
                                     CONCURRENT STRINGS              */ 11800000
         3 SMF64MAC CHAR(4),      /* ACBMACRF FIELDS             @SMC*/ 11850000
           5 SMF64MC1 CHAR(1),    /* ACBMACR1 MACRF FIELD            */ 11900000
           5 SMF64MC2 CHAR(1),    /* ACBMACR2 MACRF FIELD            */ 11950000
           5 SMF64MC3 CHAR(1),    /* ACBMACR3 MACRF FIELD            */ 12000000
           5 SMF64MC4 CHAR(1),    /* ACBMACR4 MACRF FIELD        @SMA*/ 12050990
 %;                               /*                            1@SMD*/ 12051980
      /* SMB INFORMATION                                         @SMA*/ 12052970
         3 SMF64SMB BIT(8),       /* SMB ACCESS BIAS INFORMATION @SMA*/ 12053960
          4 SMF64ACC BIT(1),      /* USER SPECIFIED AMP ACCBIAS ON      12054950
                                     JCL (ACCBIAS=DO|SO|DW|SW)   @SMA*/ 12055940
          4 SMF64SYS BIT(1),      /* USER REQUESTED ON JCL AMP OR       12056930
                                     DATACLASS THAT SMB IS TO           12057920
                                     DETERMINE ACCBIAS           @SMA*/ 12058910
          4 SMF64DO  BIT(1),      /* BIAS=DO USED                @SMA*/ 12059900
          4 SMF64SO  BIT(1),      /* BIAS=SO USED                @SMA*/ 12060890
          4 SMF64SW  BIT(1),      /* BIAS=SW USED                @SMA*/ 12061880
          4 SMF64DW  BIT(1),      /* BIAS=DW USED                @SMA*/ 12062870
          4 SMF64CO  BIT(1),      /* BIAS=CO USED                @SMA*/ 12063860
          4 SMF64CR  BIT(1),      /* BIAS=CR USED                @SMA*/ 12064850
         3 SMF64RSC  BIT(8),      /* SMB INFORMATION             @SMA*/ 12065840
          4 SMF64VSP BIT(1),      /* DO WITH USER SPECIFIED      @SMA*/ 12066830
                                  /* SMBVSP                      @SMA*/ 12067820
          4 SMF64HWT BIT(1),      /* DO WITH USER SPECIFIED      @SMA*/ 12068810
                                  /* SMBHWT                      @SMA*/ 12069800
          4 SMF64BUF BIT(1),      /* RMODE31=BUFF USED           @SMA*/ 12070790
          4 SMF64CB  BIT(1),      /* RMODE31=CB USED             @SMA*/ 12071780
          4 SMF64IVS BIT(1),      /* INSUFFICIENT VIRTUAL        @SMA*/ 12072770
                                  /* STORAGE FOR DO              @SMA*/ 12073760
          4 *        BIT(3),      /* RESERVED                    @SMA*/ 12074750
      /* HIPERBATCH I/O STATISTICS         */                           12100000