*                                                                       00033300
*        %GOTO TPCPLS1;   /*                                            00066600
         MACRO                                                          00100002
&NAME    IEAVVTPC  &DSECT=YES                                           00120000
**/                                                                     00140000
*%TPCPLS1 : ;                                                           00160002
*                                                                       00160900
*/* START OF SPECIFICATIONS **************************************** */ 00161800
*/*                                                                  */ 00162700
*/*01* MACRO NAME = IEAVVTPC                                         */ 00163600
*/*                                                                  */ 00164500
*/*01* DESCRIPTIVE NAME = TIMER SUPERVISION WORK AREA                */ 00165400
*/*                                                                  */ 00166300
*/*01* PROPRIETARY STATEMENT =                                   @L5C*/ 00168500
*/*     LICENSED MATERIALS - PROPERTY OF IBM                         */ 00170800
*/*     THIS MACRO IS "RESTRICTED MATERIALS OF IBM"                  */ 00171400
*/*     5647-A01 (C) COPYRIGHT IBM CORP. 1981, 1999                  */ 00172400
*/*                                                                  */ 00173500
*/*01* STATUS = JBB6608                                          @L5C*/ 00174400
*/*                                                                  */ 00175300
*/*01* FUNCTION = PROVIDE DATA MAPPING OF THE TPC.                   */ 00176200
*/*                                                                  */ 00177100
*/*01* METHOD OF ACCESS =                                            */ 00178000
*/*      BAL  - DSECT IS PRODUCED UNLESS DSECT=NO IS SPECIFIED.      */ 00178900
*/*             USING ON TPC GIVES ADDRESSABILITY FOR ALL SYMBOLS.   */ 00179800
*/*      PL/S - DCL TPCPTR PTR                                       */ 00180700
*/*                                                                  */ 00181600
*/*                                                                  */ 00182500
*/*01* DSECT NAME: TPC                                               */ 00182600
*/*                                                                  */ 00182700
*/*01* EYE CATCHER: ' TPC'                                           */ 00182800
*/*02*  OFFSET: 0                                                    */ 00182900
*/*02*  LENGTH: 4                                                    */ 00183000
*/*                                                                  */ 00183100
*/*01* STORAGE ATTRIBUTES:                                           */ 00183200
*/*02*  MAIN STORAGE:                                                */ 00183300
*/*02*  VIRTUAL STORAGE:                                             */ 00183400
*/*02*  AUXILIARY STORAGE:                                           */ 00183500
*/*02*  SUBPOOL: 245                                                 */ 00183600
*/*02*  KEY: 0                                                       */ 00183700
*/*02*  DATA SPACE:                                                  */ 00183800
*/*02*  RESIDENCY: below 16 Meg line                                 */ 00183900
*/*                                                                  */ 00184000
*/*01* CREATED BY: IEATPC                                            */ 00184100
*/*                                                                  */ 00184200
*/*01* POINTED TO BY: CVTTPC                                         */ 00184300
*/*                                                                  */ 00184400
*/*01* SIZE: 424 BYTES (DECIMAL)                                     */ 00184500
*/*                                                                  */ 00184600
*/*01* SERIALIZATION: Dispatcher lock                                */ 00184700
*/*                                                                  */ 00184800
*/*01* EXTERNAL CLASSIFICATION:                                      */ 00184900
*/*                                                                  */ 00185000
*/*02* DMTI: BASE                                                    */ 00185100
*/*                                                                  */ 00185200
*/*02* GUPI: FIELDS                                                  */ 00185300
*/*          TPCSDIE                                                 */ 00185400
*/*                                                                  */ 00185500
*/*01* END OF EXTERNAL CLASSIFICATION:                               */ 00185600
*/*                                                                  */ 00185700
*/*01* COMPONENT= TIMER SUPERVISION (SC1CV)                          */ 00185800
*/*                                                                  */ 00185900
*/*01* DISTRIBUTION LIBRARY = AMACLIB                                */ 00186000
*/*                                                                  */ 00186100
*/* END OF SPECIFICATIONS ****************************************** */ 00187000
*%GOTO TPCPLS2;  /*                                                     00187900
.*                                                                      00188800
.*********************************************************************  00189700
.*   CHANGE-ACTIVITY=                                                   00190600
.*                                                                      00191500
.*  $D1=DCR0047  JBB2125  830325  PD162M:  SET TIMER MULTIPLE TQE       00192400
.*                                         SUPPORT                      00193300
.*  $L1=IOGEN    JBB2220  840611  PD162M:  IOGEN RESTRUCTURE            00194200
.*  $L2=IOGEN    JBB2220  840806  PD16Q4:  IOGEN RESTRUCTURE            00195100
.*                                         IEAVBK BREAKUP               00196000
.*  $L3=CLOCK    HBB4410  870622  PD162M:  ETR SUPPORT                  00196100
.*  $L4=CLOCK    HBB4410  871130  PD16CU:  ETR SUPPORT                  00196200
.*  $D2=DHB1009  HBB4410  881203  PD16CU:  IEATTOC VCON FOR NEW         00196300
.*                                         INTERFACE                    00196400
.*  $D3=DEO0222  HBB4410  890918  PD162M:  CLOCKXX SUPPORT              00196500
.*  $P1=PEO4304  HBB4410  900604  PD162M:  IEATESMR VCON                00196600
.*  $01=OW28604  HBB6603  960601  B7HGH5:  Sysplex test datesource      00196700
.*                                         support                      00196800
.*  $L5=STCKE    HBB6608  980530  B7HGH5:  128 bit TOD support          00197100
.*                                                                      00197400
.*********************************************************************  00197800
.*                                                                      00198700
         AIF   ('&DSECT' EQ 'NO').TT                                    00200002
TPC      DSECT ,TPCPTR                                                  00250002
         AGO   .TT2                                                @L2C 00300000
.TT      ANOP                                                           00350002
         AIF ('&SYSECT' NE 'IEATPC').TT2                           @L2A 00358500
         ENTRY IEATSELM                                                 00410002
         ENTRY TPCMFTQE                                                 00420002
         DS    0D                       TIMER SUPERVISION WORK AREA@L2A 00435800
         AGO   .TT3                                                @L2A 00451600
.TT2     ANOP                                                      @L2A 00467400
IEATPC   DS    0D                       TIMER SUPERVISION WORK AREA     00483300
.TT3     ANOP                                                      @L2A 00516600
TPCTPCA  DC    C' TPC'                  TPC IDENTIFICATION              00550002
TPCFLGS1 DC    X'00'                    TPCA FLAG BYTE 1                00600002
TPCABND  EQU   X'80'                    REAL TQES ABENDED               00650002
TPCSYNC  EQU   X'40'                    SYNC CHECK OCCURRED             00660002
TPCUNKWN EQU   X'20'                    IO CLOCK STAT UNKNOWN @G860P2P  00680000
TPCPRMPT EQU   X'10'                    OPERATOR PROMPTING        @L1A  00685000
*                                       REQUIRED DURING TOD CLOCK       00690000
*                                       INITIALIZATION. CONTROLLED BY   00692500
*                                       SYS1.PARMLIB MEMBER CLOCKXX     00695000
*                                       OPERATOR STATEMENT              00697500
TPCIPLSC EQU   X'08'                    TOD SYNC CHECK OCCURRED   @L3A  00698000
*                                       DURING IPL                      00698500
TPCSIM   EQU   X'04'                    SIMETRID SPECIFIED IN     @D3A  00699000
*                                       SYS1.PARMLIB MEMBER CLOCKXX     00699500
TPCDIAG220 EQU   X'02'                  Diagnose 220 is available @01A  00699600
*                                       to retrieve the epoch value.    00699700
TPCSTCKE   EQU   X'01'                  STCKE and related         @L5A  00699800
*                                       hardware installed              00699900
         DC    X'0000'                  RESERVED                        00700002
TPCCC    DC    X'00'                    STCK CONDITION CODE             00750002
TPCTZORG DC    F'0'                     IPL TIME ZONE CONSTANT          00800002
TPCHDCCQ DC    A(TPCDMTQE)              HEAD OF REAL TIME QUEUE         00850002
TPCDMTQE DC    C' TQE'                  DUMMY TQE                       00900002
DFD      DC    A(TPCDMTQE)              DUMMY TQE                       00950002
         DC    A(TPCHDCCQ-DFD+TPCDMTQE) DUMMY TQE                       01000002
         DC    H'0'                     DUMMY TQE                       01050002
         DC    X'03'                    DUMMY TQE                       01100002
         DC    X'10'                    DUMMY TQE                       01150002
         DC    X'FFFFFFFFFFFFFFFF'      DUMMY TQE                       01200002
TPCMNTQE DC    C' TQE'                  MIDNIGHT TQE                    01250002
         DC    F'0'                     MIDNIGHT TQE                    01300002
         DC    F'0'                     MIDNIGHT TQE                    01350002
         DC    H'0'                     MIDNIGHT TQE                    01400002
         DC    X'83'                    MIDNIGHT TQE                    01450002
         DC    X'01'                    MIDNIGHT TQE                    01500002
MNIGHT   DC    2F'0'                    MIDNIGHT TQE                    01550002
TPCMFTQE DC    C' TQE'                  RMF TQE                         01600000
         DC    F'0'                     RMF TQE                         01650000
         DC    F'0'                     RMF TQE                         01700000
         DC    H'0'                     RMF TQE                         01750000
         DC    X'83'                    RMF TQE                         01800000
         DC    X'02'                    RMF TQE                         01850000
         DC    2F'0'                    RMF TQE                         01900000
IEATSELM DC    C' TQE'                  SYSTEM RESOURCES MANAGER TQE    01950002
         DC    F'0'                     SYSTEM RESOURCES MANAGER TQE    02000002
         DC    F'0'                     SYSTEM RESOURCES MANAGER TQE    02050002
         DC    H'0'                     SYSTEM RESOURCES MANAGER TQE    02100002
         DC    X'83'                    SYSTEM RESOURCES MANAGER TQE    02150002
         DC    X'04'                    SYSTEM RESOURCES MANAGER TQE    02200002
         DC    2F'0'                    SYSTEM RESOURCES MANAGER TQE    02250002
TPCLMTQE DC    C' TQE'                  TIME LIMIT CHECKING TQE         02300002
         DC    F'0'                     TIME LIMIT CHECKING TQE         02350002
         DC    F'0'                     TIME LIMIT CHECKING TQE         02400002
         DC    H'0'                     TIME LIMIT CHECKING TQE         02450002
         DC    X'83'                    TIME LIMIT CHECKING TQE         02500002
         DC    X'08'                    TIME LIMIT CHECKING TQE         02550002
         DC    2F'0'                    TIME LIMIT CHECKING TQE         02600002
TPCIDCNT DC    F'0'                     COUNT OF LAST STIMERM ID   @D1A 02640000
*                                       ASSIGNED                   @D1A 02680000
TPCSTPC  DC    A(0)                     ADDRESS OF SECONDARY       @L4A 02686600
*                                       TIMER WORK AREA (STPC).         02693200
TPCSSTQE DC    C' TQE'                  ETR SUBSET MONITOR TQE     @L4A 02699800
         DC    F'0'                     ETR SUBSET MONITOR TQE     @L4A 02706400
         DC    F'0'                     ETR SUBSET MONITOR TQE     @L4A 02713000
         DC    H'0'                     ETR SUBSET MONITOR TQE     @L4A 02719600
         DC    X'83'                    ETR SUBSET MONITOR TQE     @L4A 02726200
         DC    X'20'                    ETR SUBSET MONITOR TQE     @L4A 02732800
         DC    2F'0'                    ETR SUBSET MONITOR TQE     @L4A 02739400
TPCRS0A8 DS    XL90                     RESERVED                   @L5C 02743800
TPCSYSNM DC    H'0'                     HW copy of CPLXSYSNUM      @L5A 02748200
         AIF ('&DSECT' EQ 'YES').TPC010                            @P1A 02752600
         EXTRN IEATESMR                                            @P1A 02759200
TPCESMR  DC    A(X'80000000'+IEATESMR)  ADDRESS OF IEATESMR        @P1A 02765800
         AGO   .TPC020                                             @P1A 02772400
.TPC010  ANOP                                                      @P1A 02779000
TPCESMR  DC    V(IEATESMR)              ADDRESS OF IEATESMR        @P1A 02785600
.TPC020  ANOP                                                           02792200
TPCWORK  DC    2F'0'                    WORK AREA                       02800002
TPCMISC  DC    18F'0'                   WORK AREA                       02802002
TPCVPTR  DC    V(IEAVRNEW)              ADDR OF VARY ONLINE ROUTINE     02802102
TPCFRRP  DC    V(IEAVRFRR)              ADDR OF TIMER FRR               02802402
TPCCRSAV DC    F'0'                     SAVE AREA FOR CR 0              02804002
TPCTCWA  DC    F'0'                     ADDR OF TOD WORKAREA            02810002
         AIF   ('&DSECT' EQ 'NO').ZZZ                                   02820002
TPCRSRB  DC    11F'0'                                                   02822002
         AGO   .QQQ                                                     02824002
.ZZZ     ANOP                                                           02826002
SRBSIZE  EQU   44                        SRB SIZE IN BYTES              02830002
SRB      EQU   0                                                        02840002
SRBASCB  EQU   8                                                        02842002
SRBASID  EQU   14                                                       02844002
SRBPTCB  EQU   16                                                       02846002
TPCRSRB  DC    (SRBSIZE/4)F'0'          TIMER HW RECOVERY SRB           02850002
         ORG   TPCRSRB+(SRBASCB-SRB)                                    02860002
         DC    V(IEAMASCB)              PTR TO MASTER ASCB         @L2C 02870000
         ORG   TPCRSRB+(SRBASID-SRB)                                    02880002
         DC    H'1'                     ASID OF MASTER                  02890002
         ORG   TPCRSRB+(SRBPTCB-SRB)                                    02892002
         DC    V(IEAMSTCB)              ADDR OF MASTER TCB         @L2C 02894000
         ORG   TPCRSRB+SRBSIZE                                          02896002
.QQQ     ANOP                                                           02898002
TPCCKQ   DC    V(IEAVRCKQ)              ADDRESS OF IEAVRCKQ             02900002
TPCCLA   DC    AL4(0)                   ADDRESS OF IEAVRCLA             02950002
TPCSDIE  DC    V(IEAVRDIE)              ADDRESS OF SETDIE      @Z40FPYB 02960040
TPCOCL   DC    V(IEAVROCL)              ADDRESS OF IEAVROCL    @Z40FPYB 02970040
TPCTTOC  DC    V(IEATTOC)               ADDRESS OF IEATTOC         @D2A 02985000
         MEND  , */                                                     03000002
*%TPCPLS2 : ;                                                           03050002
*DECLARE                                                                03100000
*  1 TPC       BASED(TPCPTR) BDY(DWORD),                                03150000
*   2 IEATPC,                          /* TIMER SUPERVISION WORKAREA */ 03200000
*     3 TPCTPCA  CHAR(4) BDY(DWORD)                                     03250000
*                      ,               /* TPC IDENTIFICATION        */  03300000
*     3 TPCFLGS1 CHAR(1),               /* TPCA FLAG BYTE 1          */ 03350000
*       5 TPCABND BIT(1),              /* REAL TQES ABENDED          */ 03400000
*       5 TPCSYNC BIT(1),              /* SYNC CHECK OCCURRED        */ 03421400
*       5 TPCUNKWN BIT(1),             /* IO CLOCK STATUS UNKNOWN       03442800
*                                                           @G860P2P*/  03464200
*       5 TPCPRMPT BIT(1),             /* OPERATOR PROMPTING REQUIRED   03473300
*                                         DURING TOD CLOCK              03482400
*                                         INITIALIZATION. CONTROLLED    03491500
*                                         BY SYS1.PARMLIB MEMBER        03500600
*                                         CLOCKXX OPERATOR              03509700
*                                         STATEMENT              @L1A*/ 03518800
*       5 TPCIPLSC BIT(1),             /* TOD SYNC CHECK OCCURRED       03523200
*                                         DURING IPL.            @L3A*/ 03527600
*       5 TPCSIM   BIT(1),             /* SIMETRID SPECIFIED IN         03532000
*                                         SYS1.PARMLIB MEMBER           03536400
*                                         CLOCKXX                @D3A*/ 03540800
*       5 TPCDIAG220 BIT(1),           /* Diagnose 220 is available     03542600
*                                         to retrieve the epoch value.  03544400
*                                                                @01A*/ 03546200
*       5 TPCSTCKE   BIT(1),           /* STCKE and related hardware    03547400
*                                         installed.             @L5A*/ 03548600
*     3 *   CHAR(2),                   /* RESERVED                   */ 03550000
*     3 TPCCC  CHAR(1),                /* STCK CONDITION CODE        */ 03600000
*     3 TPCTZORG FIXED(31),            /* IPL TIME ZONE CONSTANT     */ 03650000
*     3 TPCHDCCQ POINTER(31)                                            03700000
*       ,                              /* HEAD OF REAL TIME QUEUE    */ 03750000
*     3 TPCDMTQE,                           /* DUMMY TQE             */ 03800000
*       5 *  CHAR(4),                       /* DUMMY TQE             */ 03850000
*       5 DFD POINTER(31),                  /* DUMMY TQE             */ 03900000
*       5 *  POINTER(31),                   /* DUMMY TQE             */ 03950000
*       5 *  FIXED(16) UNSIGNED,            /* DUMMY TQE             */ 04000000
*       5 *  CHAR(1) ,                      /* DUMMY TQE             */ 04050000
*       5 *  CHAR(1) ,                      /* DUMMY TQE             */ 04100000
*       5 *  BIT(64) ,                             /* DUMMY TQE      */ 04150000
*     3 TPCMNTQE,                           /* MIDNIGHT TQE          */ 04200000
*       5 *  CHAR(4) ,                      /* MIDNIGHT TQE          */ 04250000
*       5 *  POINTER(31) ,                  /* MIDNIGHT TQE          */ 04300000
*       5 *  POINTER(31) ,                  /* MIDNIGHT TQE          */ 04350000
*       5 *  FIXED(16) UNSIGNED,            /* MIDNIGHT TQE          */ 04400000
*       5 *  CHAR(1),                       /* MIDNIGHT TQE          */ 04450000
*       5 *  CHAR(1),                       /* MIDNIGHT TQE          */ 04500000
*       5 MNIGHT BIT(64) BDY(DWORD),        /* MIDNIGHT TQE          */ 04550000
*         7 MNIGHTLH  FIXED(32) UNSIGNED,                               04600000
*         7 MNIGHTRH  FIXED(32) UNSIGNED,                               04650000
*     3 TPCMFTQE,                           /* RMF TQE               */ 04700000
*       5 *  CHAR(4),                       /* RMF TQE               */ 04750000
*       5 *  POINTER(31),                   /* RMF TQE               */ 04800000
*       5 *  POINTER(31),                   /* RMF TQE               */ 04850000
*       5 *  FIXED(16) UNSIGNED,            /* RMF TQE               */ 04900000
*       5 *  CHAR(1),                       /* RMF TQE               */ 04950000
*       5 *  CHAR(1),                       /* RMF TQE               */ 05000000
*       5 *  BIT(64),                       /* RMF TQE               */ 05050000
*     3 IEATSELM,                           /* SYS RESOURCES MGR TQE */ 05100000
*       5 *  CHAR(4),                       /* SYS RESOURCES MGR TQE */ 05150000
*       5 *  POINTER(31),                   /* SYS RESOURCES MGR TQE */ 05200000
*       5 *  POINTER(31),                   /* SYS RESOURCES MGR TQE */ 05250000
*       5 *  FIXED(16) UNSIGNED,            /* SYS RESOURCES MGR TQE */ 05300000
*       5 *  CHAR(1),                       /* SYS RESOURCES MGR TQE */ 05350000
*       5 *  CHAR(1),                       /* SYS RESOURCES MGR TQE */ 05400000
*       5 *  BIT(64),                       /* SYS RESOURCES MGR TQE */ 05450000
*     3 TPCLMTQE,                           /* TIME LIMIT CKING TQE  */ 05500000
*       5 *  CHAR(4),                       /* TIME LIMIT CKING TQE  */ 05550000
*       5 *  POINTER(31),                   /* TIME LIMIT CKING TQE  */ 05600000
*       5 *  POINTER(31),                   /* TIME LIMIT CKING TQE  */ 05650000
*       5 *  FIXED(16) UNSIGNED,            /* TIME LIMIT CKING TQE  */ 05700000
*       5 *  CHAR(1),                       /* TIME LIMIT CKING TQE  */ 05750000
*       5 *  CHAR(1),                       /* TIME LIMIT CKING TQE  */ 05800000
*       5 *  BIT(64),                       /* TIME LIMIT CKING TQE  */ 06500002
*     3 TPCIDCNT FIXED(32) UNSIGNED,   /* COUNT OF LAST                 06550000
*                                         STIMERM ID ASSIGNED    @D1A*/ 06600000
*     3 TPCSTPC  POINTER(31),          /* ADDRESS OF SECONDARY          06611500
*                                         TIMER WORK AREA (STPC) @L4A*/ 06623000
*     3 TPCSSTQE,                      /* ETR SUBSET MONITOR TQE @L4A*/ 06634500
*       5 *  CHAR(4),                  /* ETR SUBSET MONITOR TQE @L4A*/ 06646000
*       5 *  POINTER(31),              /* ETR SUBSET MONITOR TQE @L4A*/ 06657500
*       5 *  POINTER(31),              /* ETR SUBSET MONITOR TQE @L4A*/ 06669000
*       5 *  FIXED(16) UNSIGNED,       /* ETR SUBSET MONITOR TQE @L4A*/ 06680500
*       5 *  CHAR(1),                  /* ETR SUBSET MONITOR TQE @L4A*/ 06692000
*       5 *  CHAR(1),                  /* ETR SUBSET MONITOR TQE @L4A*/ 06703500
*       5 *  BIT(64),                  /* ETR SUBSET MONITOR TQE @L4A*/ 06715000
*     3 TPCRS0A8 CHAR(90),             /* RESERVED               @L5C*/ 06722600
*     3 TPCSYSNM CHAR(2),              /* HW copy of CPLXSYSNUM  @L5A*/ 06730200
*     3 TPCESMR  POINTER(31),          /* ADDR OF IEATESMR       @P1A*/ 06738000
*     3 TPCWORK  BIT(64) BDY(DWORD),   /* WORKAREA                   */ 06750002
*       5 TPCWORKL  FIXED(32) UNSIGNED,                                 06760002
*       5 TPCWORKR  FIXED(32) UNSIGNED,                                 06770002
*     3 TPCMISC(18) POINTER(31),       /* WORK AREA                 */  06772002
*     3 TPCVPTR  POINTER(31),          /* PTR TO VARY ONLINE ROUTINE*/  06772402
*     3 TPCFRRP  POINTER(31),          /* PTR TO TIMER FRR          */  06774002
*     3 TPCCRSAV FIXED(32) UNSIGNED                                     06780002
*                 ,                    /* SAVE AREA FOR CR0          */ 06790000
*     3 TPCTCWA  POINTER(31),               /* ADDR OF TOD WORKAREA  */ 06840000
*     3 TPCRSRB  (11) FIXED(31),            /* TIMER HW RECVY SRB    */ 06890000
*     3 TPCCKQ   POINTER(31),               /* ADDR OF IEAVRCK       */ 06940000
*     3 TPCCLA   POINTER(31),               /* ADDR OF IEAVRCLA      */ 06990000
*     3 TPCSDIE  POINTER(31),  /* ADDR OF SETDIE  ROUTINE    @Z40FPYB*/ 07040000
*     3 TPCOCL  POINTER(31),  /* ADDR OF OCL ROUTINE         @Z40FPYB*/ 07090000
*     3 TPCTTOC POINTER(31);           /* ADDRESS OF IEATTOC     @D2A*/ 07140000
