*%GOTO   SMF94P1;                  /* Bilingual mapping                 00050000
         MACRO                                                          00100000
&NAME    IECSMF94                                                       00150000
******                                                               */ 00186300
*%SMF94P1: ;                                                            00222600
*/********************************************************************/ 00258900
*/*                                                                  */ 00295200
*/*   MACRO NAME = IECSMF94                                          */ 00331500
*/*                                                                  */ 00367800
*/*PROPRIETARY V3 STATEMENT                                          */ 00409200
*/*LICENSED MATERIALS - PROPERTY OF IBM                              */ 00450600
*/*"RESTRICTED MATERIALS OF IBM"                                     */ 00492000
*/*5695-DF1                                                          */ 00533400
*/*(C) COPYRIGHT 1993  IBM CORP.                                     */ 00574800
*/*END PROPRIETARY V3 STATEMENT                                      */ 00616200
*/*                                                                  */ 00658200
*/*   STATUS = JDZ1110                                               */ 00694500
*/*                                                                  */ 00730800
*/*   SMF record type 94(5E), SUBTYPE(01), is written approximately  */ 00767100
*/*   every hour when the 34xx tape library data server reports      */ 00803400
*/*   statistics. The 34xx reports statistics via a statistical      */ 00839700
*/*   data message which is read and recorded by the MVS tape error  */ 00876000
*/*   recovery program (module IGE0001E).                            */ 00912300
*/*                                                                  */ 00948600
*/* CHANGE ACTIVITY =                                                */ 00984900
*/*                                                                  */ 01021200
*/* $01=OY60348,JDZ1110,SJPLLRU: Prevent mult SMF T94 writes     @01A*/ 01057500
*/*                              Related APAR: OY60349           @01A*/ 01093800
*/* $02=OY62249 ,JDZ1110,SJPLLRU: User gets IEV025, IEV041, and  @02A*/ 01130100
*/*                               IEV158 msgs during assembly    @02A*/ 01166400
*/* $03=OY62842,JDZ1110,SJPLLRU: Refresh of OY62249, no changes  @03A*/ 01202700
*/*                              were made for this APAR         @03A*/ 01239000
*/* $04=OW27369,HDZ11B0,TUCKEE:  FCR0252 - added Virtual Tape        */ 01251100
*/*                              Server Statistics               @04A*/ 01263200
*/* $IX=OW36360,HDZ11D0,SJPLRDB: VTS IMPORT/EXPORT SPE           @IXA*/ 01267200
*/*                              FCR 258-03                      @IX2*/ 01271200
*/* $XX=OW42071,HDZ11E0,SJPLRDB: enhanced VTS statistics         @gem*/ 01273200
*/*                              FRC267-02 gemini changes        @ge2*/ 01274200
*/********************************************************************/ 01275300
*%GOTO   SMF94P2;                  /*                                   01311600
SMFRCD94 DSECT                                                          01350000
*                                                                       01375000
*********************************************************************** 01400000
*        SMF RECORD HEADER SEGMENT                                      01450000
*********************************************************************** 01500000
SMF94RPS DS    0CL24               Type 94 Record Header                01550000
*                                                                       01575000
SMF94LEN DS    H'0'                Record Length                        01600000
*                                                                       01625000
SMF94SEG DS    H'0'                Segment Descriptor                   01650000
*                                                                       01675000
SMF94FLG DS    BL1'0'              Header Flag Byte                     01702500
SMF94FNM EQU   X'80'               ..Subsystem name follows       @02C  01730000
*                                    standard header              @02C  01760000
SMF94FST EQU   X'40'               ..Subtypes utilized            @02C  01790000
*                                                                       01820000
SMF94RTY DS    BL1'0'              Record Type = 94 (hex 5E)            01844000
SMF94C94 EQU   X'5E'               94 (for ease of use)                 01868100
*                                                                       01886200
SMF94TME DS    CL4' '              Time since midnight, in hundredths   01904300
*                                  of a second, when the record was     01922400
*                                  moved into the SMF buffer.           01940500
*                                                                       01958600
SMF94DTE DS    PL4'0000'           Date when the record was moved       01976700
*                                  into the SMF buffer, in the form     01994800
*                                  cyydddF (where F is the sign).       02012900
*                                                                       02031000
SMF94SID DS    CL4' '              System Id (from SMFPRMXX parm)       02053000
*                                                                       02075000
SMF94WID DS    CL4' '              Subsystem id, worktype indicator     02100000
*                                                                       02125000
SMF94STP DS    BL2'0'              Record Subtype                       02162500
*                                  1 = 34xx Library Statistics          02200000
*                                                                       02225000
*********************************************************************** 02250000
*        SELF DEFINING SECTION                                          02300000
*********************************************************************** 02350000
SMF94SDS DS    0CL76' '            Self Defining Section                02400000
SMF94SDL DS    F'0'                Self Defining Section length         02450000
*                                                                       02500000
SMF94POF DS    F'0'                Offset to product Section            02550000
SMF94PLN DS    H'0'                Length of product Section            02600000
SMF94PON DS    H'0'                Number of product Sections           02650000
*                                                                       02700000
SMF94HOF DS    F'0'                Offset to format section             02750000
SMF94HLN DS    H'0'                Length of format section             02800000
SMF94HON DS    H'0'                Number of format sections            02850000
*                                                                       02900000
SMF94SOF DS    F'0'                Offset to self descr info            02950000
SMF94SLN DS    H'0'                Length of self descr info            03000000
SMF94SON DS    H'0'                Number of self descr info            03050000
*                                                                       03100000
SMF94LOF DS    F'0'                Offset to library stats              03150000
SMF94LLN DS    H'0'                Length of library stats              03200000
SMF94LON DS    H'0'                Number of library stats              03250000
*                                                                       03300000
SMF94MOF DS    F'0'                Offset to mount stats                03350000
SMF94MLN DS    H'0'                Length of mount stats                03400000
SMF94MON DS    H'0'                Number of mount stats                03450000
*                                                                       03500000
SMF94DOF DS    F'0'                Offset to demount stats              03550000
SMF94DLN DS    H'0'                Length of demount stats              03600000
SMF94DON DS    H'0'                Number of demount stats              03650000
*                                                                       03700000
SMF94EOF DS    F'0'                Offset to eject stats                03750000
SMF94ELN DS    H'0'                Length of eject stats                03800000
SMF94EON DS    H'0'                Number of eject stats                03850000
*                                                                       03900000
SMF94AOF DS    F'0'                Offset to audit stats                03950000
SMF94ALN DS    H'0'                Length of audit stats                04000000
SMF94AON DS    H'0'                Number of audit stats                04050000
*                                                                       04100000
SMF94IOF DS    F'0'                Offset to insert stats               04150000
SMF94ILN DS    H'0'                Length of insert stats               04186600
SMF94ION DS    H'0'                Number of insert stats               04223200
*                                                                       04260000
SMF94VOF DS    F'0'                Offset to VTS stats           @04A   04270000
SMF94VLN DS    H'0'                Length of VTS stats           @04A   04274200
SMF94VON DS    H'0'                Number of VTS stats           @04A   04278400
*                                                                       04282600
SMF94XOF DS    F'0'                Offset to import/export stats @IXA   04286800
SMF94XLN DS    H'0'                Length of import/export stats @IXA   04291000
SMF94XON DS    H'0'                Number of import/export stats @IXA   04295200
*                                                                       04296100
SMF942OF DS    F'0'                Offset to enhanced VTS stats  @gem   04297000
SMF942LN DS    H'0'                Length of enhanced VTS stats  @gem   04297900
SMF942ON DS    H'0'                Number of enhanced VTS stats  @gem   04298800
*                                                                       04300000
*********************************************************************** 04350000
*        PRODUCT SECTION                                                04400000
*********************************************************************** 04450000
SMF94PSS DSECT ,                   Product section                      04500000
SMF94TYP DS    H'0'                Subtype for type 94 record.          04533300
*                                                                       04566600
SMF94RVN DS    CL2' '              Record Version Number C'01'          04595800
*                                                                       04625000
SMF94PNM DS    CL8' '              FMID, such as JDZ1110                04650000
*                                                                       04675000
SMF94MVS DS    CL8' '              MVS Operating System Name            04700000
*                                                                       04725000
*********************************************************************** 04750000
*        HEADER SECTION (bytes 9-11 in source record)                   04800000
*********************************************************************** 04900000
SMF94HDR DSECT                                                          04950000
SMF94HSF DS    X'00'               Statistics format, always zero       04971400
*                                                                       04992800
SMF94HHI DS    CL2' '              Hour index in binary, incremented    05014200
*                                  every hour.  Value ranges from       05035600
*                                  0 to 23 (17 hex).                    05057000
*                                                                       05078400
*********************************************************************** 05100000
*        SELF DESCRIPTION INFORMATION (bytes 12-37 in source record)    05150000
*********************************************************************** 05250000
SMF94SLF DSECT ,                   Self description information         05264200
*                                                                       05278400
SMF94SLT DS    CL6' '              System-managed Tape Library type     05292600
*                                  number.  For example, 003495         05306800
*                                  represents the 3495 Tape Library     05321000
*                                  Dataserver.                          05335200
*                                                                       05349400
SMF94SLM DS    CL3' '              System-managed Tape Library model    05363600
*                                  number.  For example, L30            05377800
*                                  represents model L30.                05392000
*                                                                       05406200
SMF94SMA DS    CL3' '              System-managed Tape Library          05420400
*                                  manufacturer.  Always equals IBM.    05434600
*                                                                       05448800
SMF94SPL DS    CL2' '              System-managed Tape Library plant    05463000
*                                  of manufacture.  For example, 13     05477200
*                                  represents San Jose, California      05491400
*                                  and 77 represents Valencia,          05505600
*                                  Spain.                               05519800
*                                                                       05534000
SMF94SNO DS    CL12' '             System-managed Tape Library          05548200
*                                  sequence number.  Uniquely           05562400
*                                  identifies a system-managed tape     05576600
*                                  library                              05590800
*                                                                       05605000
         DS    X'00'               Reserved                             05619200
*                                                                       05633400
*********************************************************************** 05650000
*        LIBRARY STATISTICS (bytes 38-53 in source record)              05700000
*********************************************************************** 05800000
SMF94LIB DSECT ,                   Library statistics                   05809600
*                                                                       05819200
SMF94LID DS    H'0'                Number of drives currently           05828800
*                                  installed in a system-managed        05838400
*                                  tape library.                        05848000
*                                                                       05857600
SMF94LMD DS    H'0'                Number of drives currently mounted   05867200
*                                  in a system-managed tape library.    05876800
*                                                                       05886400
SMF94LM1 DS    H'0'                Maximum number of drives mounted     05896000
*                                  during the last hour.                05905600
*                                                                       05915200
SMF94LM2 DS    H'0'                Minimum number of drives mounted     05924800
*                                  during the last hour.                05934400
*                                                                       05944000
SMF94LM3 DS    H'0'                Average number of drives mounted     05953600
*                                  during the last hour.                05963200
*                                                                       05972800
SMF94LT1 DS    H'0'                Maximum amount of time, in seconds,  05982400
*                                  that a tape volume was mounted on    05992000
*                                  a drive during the last hour.        06001600
*                                  The mount time of a volume is the    06011200
*                                  time when the system completed       06020800
*                                  mounting a volume on a drive         06030400
*                                  until the the time when the          06040000
*                                  system-managed tape library          06049600
*                                  receives an order from the host      06059200
*                                  to demount the volume.               06068800
*                                                                       06078400
SMF94LT2 DS    H'0'                Minimum amount of time, in seconds,  06088000
*                                  that a tape volume was mounted on    06097600
*                                  a drive during the last hour.        06107200
*                                  The mount time of a volume is the    06116800
*                                  time when the system completed       06126400
*                                  mounting a volume on a drive         06136000
*                                  until the time when the              06145600
*                                  system-managed tape library          06155200
*                                  receives an order from the host      06164800
*                                  to demount the volume.               06174400
*                                                                       06184000
SMF94LT3 DS    H'0'                Average amount of time, in seconds,  06193600
*                                  that all tape volumes were           06203200
*                                  mounted on drives during the last    06212800
*                                  hour.  The mount time of a volume    06222400
*                                  is the time when the system          06232000
*                                  completed mounting a volume on a     06241600
*                                  drive until the time when the        06251200
*                                  system-managed tape library          06260800
*                                  receives an order from the host      06270400
*                                  to demount the volume.               06280000
*                                                                       06289600
*********************************************************************** 06300000
*        MOUNT STATISTICS (bytes 54-73 in source record)                06350000
*********************************************************************** 06450000
SMF94MNT DSECT ,                   Mount statistics                     06463300
*                                                                       06476600
SMF94MPR DS    H'0'                The total number of mount requests   06489900
*                                  currently pending.                   06503200
*                                                                       06516500
SMF94MP1 DS    H'0'                Maximum number of mount requests     06529800
*                                  pending during the last hour.        06543100
*                                                                       06556400
SMF94MP2 DS    H'0'                Minimum number of mount requests     06569700
*                                  pending during the last hour.        06583000
*                                                                       06596300
SMF94MP3 DS    H'0'                Average number of mount requests     06609600
*                                  pending during the last hour.        06622900
*                                                                       06636200
SMF94MTO DS    H'0'                Total number of mounts during the    06649500
*                                  last hour.                           06662800
*                                                                       06676100
SMF94MIN DS    H'0'                Index mounts during the last hour.   06689400
*                                  An index mount is a mount            06702700
*                                  accomplished using the automatic     06716000
*                                  cartridge loader of a 3490 tape      06729300
*                                  drive.                               06742600
*                                                                       06755900
SMF94MPM DS    H'0'                Pre-mounts during last hour.  A      06769200
*                                  single pre-mount operation causes    06782500
*                                  a volume to be added to the          06795800
*                                  automatic cartridge loader of a      06809100
*                                  3490 tape drive.                     06822400
*                                                                       06835700
SMF94MT1 DS    H'0'                Maximum amount of time, in seconds,  06849000
*                                  required to perform any single       06862300
*                                  mount operation during the last      06875600
*                                  hour.                                06888900
*                                                                       06902200
SMF94MT2 DS    H'0'                Minimum amount of time, in seconds,  06915500
*                                  required to perform any single       06928800
*                                  mount operation during the last      06942100
*                                  hour.                                06955400
*                                                                       06968700
SMF94MT3 DS    H'0'                Average amount of time, in seconds,  06982000
*                                  required to perform a single         06995300
*                                  mount operation during the last      07008600
*                                  hour.                                07021900
*                                                                       07035200
*********************************************************************** 07050000
*        DEMOUNT STATISTICS (bytes 74-93 in source record)              07100000
*********************************************************************** 07200000
SMF94DMT DSECT ,                   Demount statistics                   07213000
*                                                                       07226000
SMF94DPR DS    H'0'                The total number of demount          07239000
*                                  requests currently pending.          07252000
*                                                                       07265000
SMF94DP1 DS    H'0'                Maximum number of demount requests   07278000
*                                  pending during the last hour.        07291000
*                                                                       07304000
SMF94DP2 DS    H'0'                Minimum number of demount requests   07317000
*                                  pending during the last hour.        07330000
*                                                                       07343000
SMF94DP3 DS    H'0'                Average number of demount requests   07356000
*                                  pending during the last hour.        07369000
*                                                                       07382000
SMF94DTO DS    H'0'                Total number of demounts during the  07395000
*                                  last hour.                           07408000
*                                                                       07421000
SMF94DIN DS    H'0'                Index demounts during the last       07434000
*                                  hour.    An index demount moves a    07447000
*                                  volume from the feed station to      07460000
*                                  the output stack of the automatic    07473000
*                                  cartridge loader of a 3490 tape      07486000
*                                  drive.                               07499000
*                                                                       07512000
SMF94DPM DS    H'0'                Post-demounts during the last hour.  07525000
*                                  A post-demount operation moves a     07538000
*                                  volume from the output stack of      07551000
*                                  the automatic cartridge loader of    07564000
*                                  a 3490 tape drive.                   07577000
*                                                                       07590000
SMF94DT1 DS    H'0'                Maximum amount of time, in seconds,  07603000
*                                  required to perform any single       07616000
*                                  demount operation during the last    07629000
*                                  hour.                                07642000
*                                                                       07655000
SMF94DT2 DS    H'0'                Minimum amount of time, in seconds,  07668000
*                                  required to perform any single       07681000
*                                  demount operation during the last    07694000
*                                  hour.                                07707000
*                                                                       07720000
SMF94DT3 DS    H'0'                Average amount of time, in seconds,  07733000
*                                  required to perform any single       07746000
*                                  demount operation during the last    07759000
*                                  hour.                                07772000
*                                                                       07785000
*********************************************************************** 07800000
*        EJECT STATISTICS (bytes 94-109 in source record)               07850000
*********************************************************************** 07950000
SMF94EJT DSECT ,                   Eject statistics                     07963500
*                                                                       07977000
SMF94EPR DS    H'0'                The total number of eject requests   07990500
*                                  currently pending.    An eject       08004000
*                                  operation moves one volume from      08017500
*                                  the system-managed tape library      08031000
*                                  to an output station for removal     08044500
*                                  by an operator.                      08058000
*                                                                       08071500
SMF94EP1 DS    H'0'                Maximum number of eject requests     08085000
*                                  pending during the last hour.        08098500
*                                                                       08112000
SMF94EP2 DS    H'0'                Minimum number of eject requests     08125500
*                                  pending during the last hour.        08139000
*                                                                       08152500
SMF94EP3 DS    H'0'                Average number of eject requests     08166000
*                                  pending during the last hour.        08179500
*                                                                       08193000
SMF94ETO DS    H'0'                Total number of ejects during the    08206500
*                                  last hour.                           08220000
*                                                                       08233500
SMF94ET1 DS    H'0'                Maximum amount of time, in seconds,  08247000
*                                  required to perform any single       08260500
*                                  eject operation during the last      08274000
*                                  hour.                                08287500
*                                                                       08301000
SMF94ET2 DS    H'0'                Minimum amount of time, in seconds,  08314500
*                                  required to perform any single       08328000
*                                  eject operation during the last      08341500
*                                  hour.                                08355000
*                                                                       08368500
SMF94ET3 DS    H'0'                Average amount of time, in seconds,  08382000
*                                  required to perform a single         08395500
*                                  eject operation during the last      08409000
*                                  hour.                                08422500
*                                                                       08436000
*********************************************************************** 08450000
*        AUDIT STATISTICS (bytes 110-125 in source record)              08500000