*        %GOTO IFAL27;   /*                                             00020000
         MACRO                                                          00040000
&NAME    IFASMFR3 &RECTYPE                                              00060000
.* *                                                                  * 00080000
.* * MACRO-NAME = IFASMFR3                                        @07C* 00091800
.* *                                                                  * 00103700
* *01* PROPRIETARY STATEMENT=                                         * 00106500
*  **PROPRIETARY_STATEMENT********************************************* 00109300
*                                                                     * 00112100
*                                                                     * 00114900
*   LICENSED MATERIALS - PROPERTY OF IBM                              * 00117700
*   THIS MACRO IS "RESTRICTED MATERIALS OF IBM"                       * 00120500
*   5647-A01 (C) COPYRIGHT IBM CORP. 1984, 2000                   @P8C* 00123300
*                                                                     * 00126100
*   STATUS= HBB7703                                                   * 00128900
*                                                                     * 00131700
*  **END_OF_PROPRIETARY_STATEMENT************************************** 00134500
.* *                                                                  * 00137900
.* * EXTERNAL CLASSIFICATION: NONE                                    * 00138800
.* * END OF EXTERNAL CLASSIFICATION:                                  * 00139700
.* *                                                                  * 00140700
.* * METHOD OF ACCESS                                                 * 00144400
.* *   PL/X - INCLUDE MACRO FROM LIBRARY                              * 00148100
.* *           EXAMPLE - %INCLUDE SYSLIB(IFASMFR3)                    * 00151800
.* *                                                                  * 00155500
.* *          THIS MACRO EXPANDS RECORDS 28-36.                       * 00159200
.* *                                                                  * 00162900
.* *                                                                    00166600
.* THIS IS AN SMF MACRO WHICH BUILDS SMF RECORDS 28 - 36. THE REQUIRED  00170300
.* FORMAT IS -                                                          00174000
.*                                                                      00177700
.*       IFASMFR3 &RECTYPE                                              00181400
.*                                                                      00185100
.* CHANGE ACTIVITY =                                                    00192500
.*                                                                      00200000
.* TYPE 30 RECORD - ADD INTERVAL START AND END TIME FOR SMF        @LRA 00201200
.*                  INTERVAL SYNC SUPPORT                          @LRA 00202400
.* TYPE 30 RECORD - ADD SUB-STEP FIELD AND STEP TERM INDICATOR FOR @LQA 00202800
.*                  OPEN/MVS SUPPORT                               @LQA 00203200
.* TYPE 33 RECORD - ADD CONVERSATION FIELDS FOR APPC ACCOUNTING    @LSA 00203300
.* TYPE 30 RECORD - ADD OPEN/MVS PROCESS SECTION                   @LUA 00203500
.* TYPE 33 RECORD - INCREASE LENGTH OF SMF33UDF FIELD              @DRA 00203600
.* TYPE 33 RECORD - DESCRIPTION AND NAME CHANGES TO TYPE 33 FIELDS @DSA 00203700
.* TYPE 34 RECORD - Add aliases to make the TIVACT and TIVTAT fields    00204100
.*                  consistent                                     @P4A 00204500
.* TYPE 30 RECORD - Add a bit to the SMF30STI field for COND=           00204900
.*                  condition                                      @0NA 00205300
.* TYPE 33 RECORD - Rename SMF33CLU field from Type 33 record      @DUA 00205700
.*                  to a reserved field.                           @DUA 00206100
.* TYPE 30 RECORD - Change O/MVS Process Section Comments          @D1A 00206300
.* TYPE 30 RECORD - Replace BIN format of Interval Start Time with @DVA 00206600
.*                  STCK Format                                    @DVA 00206900
.* TYPE 30 RECORD - Change the description of SMF30DSV to remove   @P5A 00207000
.*                  the subtype 4 only restriction and include     @P5A 00207100
.*                  the units (megabytes)                          @P5A 00207200
.* TYPE 30 RECORD - Delete SMF30VDV                                @LYA 00207900
.* TYPE 34 RECORD - Delete TIVVDV                                  @LYA 00208600
.* TYPE 30 RECORD - Change O/MVS Description to OpenMVS            @0OA 00209300
.* TYPE 30 RECORD - Add New Fields to Performance Section          @L1A 00209400
.* TYPE 30 RECORD - Change description of SMF30PGN and SMF30PTY    @L2A 00209500
.* TYPE 32 RECORD - Change description of SMF32PGN                 @L2A 00209600
.* TYPE 34 RECORD - Change description of TIVPGNO                  @L2A 00209700
.* TYPE 35 RECORD - Change description of TLGPGNO                  @L2A 00209800
.* TYPE 30 RECORD - Change description of SMF30FLG and SMF30RVN    @D2A 00209900
.* TYPE 30 RECORD - Add APPC/MVS Resource section                  @04A 00210000
.* TYPE 30 RECORD - Add SMF30DMI, SMF30DMO for ADMF support        @03A 00210100
.* TYPE 30 RECORD - Add ARM 'triplet' to Header Section            @L3A 00210200
.* TYPE 30 RECORD - Add system name field to Product Section       @L3A 00210300
.* TYPE 30 RECORD - Add ARM Section                                @L3A 00210400
.* TYPE 30 RECORD - Add 'Sockets' fields in support of Sockets     @L5A 00210500
.* TYPE 30 RECORD - Add 'Enclave' fields in support of Enclaves    @L7A 00210600
.* TYPE 30 RECORD - Add fields in support of Captured Storage      @L8A 00210700
.* TYPE 30 RECORD - Include system-related data fields             @05A 00210800
.* TYPE 32 RECORD - Include system-related data fields             @05A 00210900
.* TYPE 33 RECORD - Include system-related data fields             @05A 00211000
.* TYPE 30 RECORD - Add Usage Data Section Mapping                 @06A 00211100
.* TYPE 30 RECORD - Add message queues fields in support of XPG4   @L9A 00211900
.* TYPE 30 RECORD - Add sync() count fields in support of XPG4     @LCA 00212300
.* TYPE 32 RECORD - Add SMF32TCF to indicate SMF32TRN not valid    @07A 00212500
.* TYPE 32 RECORD - Add SMF32COS to allow for subsequent records   @09A 00212600
.* TYPE 30 RECORD - Add SMF30PFL, SMF30JQT, SMF30RQT, SMF30HQT,         00212700
.*                      SMF30SQT, SMF30PF1, SMF30PFJ, SMF30PFR,         00212800
.*                      SMF30PFF, SMF30RTR and SMF30RS4            @LEA 00212900
.* TYPE 30 RECORD - Add Remote System Data Section mapping         @LFA 00213100
.* TYPE 30 RECORD - Add SMF30XBS for blocksize >32K                @LGA 00213200
.* IFASMFR3       - Fixed copyright/program number statements.     @P8A 00213300
.*                                                                      00213400
.* $PV=PAJ0111 ,JBB2125,830627,PDFS: INCREASE SIZE OF SMF30RGN     @PVA 00213500
.* $H4=VF      ,JBB2214,840320,PDFS: VECTORS SUPPORT               @H4A 00214300
.* $D6=DCR2    ,JBB2214,840501,PDFS: ADD VECTOR AFFINITY TIME      @D6A 00215200
.* $L4=QUALITY ,JBB2214,840510,PDFS: QUALITY                       @L4A 00219000
.* $D7=DCR4    ,JBB2220,840501,PDFS: SUBTYPE SELECTIVITY           @D7A 00222800
.* $D9=DCR93   ,JBB2220,850401,PDFS: I/O MEASUREMENT SUPPORT       @D9A 00226600
.* $DA=DCR132  ,JBB2220,850515,PDFS: >1635 DD STATEMENTS           @DAA 00230400
.* $DC=DCR12   ,HBB3310,860063,PDFS: ADD TERMINAL SYMBOLIC NAME    @DCA 00234200
.* $L6=DATASP  ,HBB3310,861013,PDFS: DATA SPACE SUPPORT            @L6A 00238000
.* $LB=HIPER   ,JBB3311,880418,PDFS: HIPERSPACE SUPPORT            @LBA 00241800
.* $DF=DCR29   ,JBB3311,880718,PDFS: HIPERSPACE CREAD MISS COUNT   @DFA 00245600
.* $02=OY25606 ,JBB3313,891220,PDLO: DD CONSOLIDATION SUPPORT      @02A 00249400
.* $LA=SERVC   ,JBB3320,871217,PDFS: >1440 TIME SUPPORT            @LAA 00253200
.* $DO=DCR0328 ,HBB4410,900228,PDBR: VERSION 4 IND, MVS REL NUN    @DOA 00257000
.* $P2=PEO4178 ,HBB4410,900507,PDBR: BOUNDRY ERRORS                @P2A 00260800
.* $LM=APPC1   ,HBB4420,891117,PDMF: APPC ACCOUNTING SUPPORT       @LMA 00264600
.* $P3=PH30483 ,HBB4420,900131,PDBR: TIME FIELD LENGTH ERRORS      @P3A 00268400
.* $LL=BPAGE   ,HBB4420,891004,PDMF: BLOCK PAGING SUPPORT          @LLA 00272200
.* $01=OY33312 ,HBB4420,900627,PDLO: OY25606 APAR ERROR            @01A 00276000
.* $08=OY32638 ,HBB4420,900604,PDLO: STEP NAME THAT INVOKED PROC   @08A 00279800
.* $TE=OY27075 ,HBB4420,900907,PDLO: INTEGRATED CRYPTO SERVICE     @TEA 00283600
.*                                   COUNT SUPPORT ADDED           @TEA 00287400
.* $DP=DCR0163 ,HBB4420,901114,PDBR: APPC Trans Re-write           @DPA 00291200
.* $DP=DCR0164 ,HBB4420,910110,PDBR: APPC Scheduler Data Formats   @DQA 00295000
.* $0M=OY38977 ,HBB4420,901217,PDLO: POST EXECUTION ERROR SUPPORT  @0MA 00300000
.* $0K=OY24857 ,HBB4420,901201,PDLO: BAD TIMER VALUE               @0KA 00350000
.* $0L=OY42632 ,HBB4420,910418,PDDH: 8-CHAR JOB CLASS SUPPORT      @0LA 00400000
.* $LR=SYNCS   ,HBB4430,911108,PDDH: SMF INTERVAL SYNC SUPPORT     @LRA 00400100
.*                                   (STAGE 3)                     @LRA 00400200
.* $LQ=POSIX   ,HBB4430,911122,PDLO: SMF OPEN/MVS SUPPORT          @LQA 00400300
.* $LS=APPCS   ,HBB4430,920115,PDMF: APPC CONVERSATION ACCOUNTING  @LSA 00400400
.* $LU=POSIX   ,HBB4430,920115,PDBR: O/MVS process accounting      @LUA 00400500
.* $DR=DKB0049 ,HBB4430,920325,PDMF: APPC FIELD LENGTH CHANGE      @DRA 00400600
.* $DS=DKB0060 ,HBB4430,920325,PDMF: TYPE 33 FIELD CHANGES         @DSA 00400700
.* $P4=PKB1023 ,HBB4430,920429,PDMF: Inconsistent type 34 fields   @P4A 00400800
.* $0N=OY50142 ,HBB4420,920406,PDLO: ADD COND= CONDITION FLAG      @0NA 00400900
.* $DU=DKB0068, HBB4430,920429,PDMF: DELETE LOCAL USERID FIELD     @DUA 00401000
.* $D1=DKB0127, HBB4430,920624,PDBR: O/MS Process Section Comments @D1A 00401100
.* $DV=DKB0107, HBB4430,920624,PDBR: DFP Dataset I/O Stats         @DVA 00401200
.* $P5=PKB2735 ,HBB4430,920805,PDLO: 10X:Fix high water mark for   @P5A 00401300
.*                                   step record                   @P5A 00401400
.* $LY=4DGIT   ,HBB5510,930304,PDSL: SMF 4K UCB enhancement        @LYA 00401500
.* $0O=OY58995 ,HBB4430,921022,PDMF: OpenMVS field descriptions    @0OA 00401600
.* $L1=WLMI    ,HBB5510,930715,PDBR: WLM Support                   @L1A 00401700
.* $L2=WLMI    ,HBB5510,930715,PDDH: SMF-WLM Support Stage 2       @L2A 00401800
.* $D2=DIG0171 ,HBB5510,930909,PDDH: MVS Reversioning 5            @D2A 00401900
.* $04=OY63634 ,HBB4420,930510,PDDH: APPC Cumulative Data          @04A 00402000
.* $03=OY65142 ,HBB4430,930614,PDSL: ADMF support                  @03A 00402100
.* $L3=ARM     ,HBB5520,931109,PDDH: SMF-ARM Support               @L3A 00402200
.* $L5=SMFOE   ,HBB5510,931129,PDDH: SMF Sockets Support           @L5A 00402300
.* $L7=ENCLV   ,HBB5520,940414,PDDH: SMF-Enclave Support           @L7A 00402400
.* $L8=CAPT2   ,HBB5520,940414,PDDH: Captured Storage Support      @L8A 00402500
.* $05=OW03229 ,HBB5510,940325,PDDH: System data in SMF record     @05A 00402600
.* $06=OW02885 ,HBB5510,940131,PDBR: Usage Address Space Recording @06A 00402700
.* $L9=OPEN3   ,JBB5522,940915,PDDH: OpenMVS XPG4 Support          @L9A 00402800
.* $LC=OPEN3   ,JBB5522,950216,PDDH: OpenMVS XPG4 Support          @LCA 00402900
.* $07=OW10393 ,HBB4430,950222,PDDH: Negative SMF32TRN value       @07A 00403000
.* $09=OW12856 ,HBB4430,950501,PDDH: ABEND878 in IEFTB727          @09A 00403100
.* $DW=DQC0023 ,HBB6603,960521,PDBB: Dependent enclaves            @DWA 00403200
.* $LE=WLMPBAT ,JBB6604,970201,PDKN: WLM Batch Support             @LEA 00403300
.* $P6=PSY0114 ,JBB6604,970201,PDKN: Better comments               @P6A 00403400
.* $LF=WLMCMES ,JBB6609,970901,PDCG: MultiSystem Enclaves          @LFA 00403500
.* $P7=PWY0577 ,JBB6609,990621,PDGD: Define SMF30WMI               @P7A 00403600
.* $LG=GT32K   ,HBB7703,990831,PKFD: >32K Blocksize Support        @LGA 00403700
.* $WLMPGMS    ,HBB7703,991129,PKBB: John Arwe                          00403800
.*                                   Goal Mode Inhibitor Storage Prot   00403900
.* $WLMPGMC    ,HBB7703,991129,PKBB: John Arwe                          00404000
.*                                   Goal Mode Inhibitor CPU Protection 00404100
.* $WLMPGMY    ,HBB7703,991129,PKBB: John Arwe                          00404200
.*                                   Goal Mode Inhibitor Classification 00404300
.* $WLMPGMT    ,HBB7703,991129,PKBB: John Arwe                          00404400
.*                                   Goal Mode Inhibitor Region Mgmt    00404500
.* $P8=PXD1020 ,HBB7703,000201,PKFD: Fix copyright                 @P8A 00404600
.*                                                                      00404700
.********************************************************************** 00404800
         AIF   (&RECTYPE EQ 30).IFAS030                        @G742PJW 00404900
         AIF   (&RECTYPE EQ 31).IFAS031                                 00405000
         AIF   (&RECTYPE EQ 32).IFAS032                        @G742PJW 00405100
         AIF   (&RECTYPE EQ 33).IFAS033                            @DPA 00405200
         AIF   (&RECTYPE EQ 34).IFAS034                                 00405300
         AIF   (&RECTYPE EQ 35).IFAS035                                 00405400
.E5      ANOP                                                           00405500
         SPACE 3                                                        00405600
         MNOTE 4,'&RECTYPE INVALID RECORD TYPE SPECIFIED'               00405700
.CONTB   ANOP                                                           00405800
         MEXIT                                                          00405900
.IFAS030 ANOP                                                  @G742PJW 00406000
***************************************************************@G742PJW 00406100
*                                                              @G742PJW 00406200
*        THIS RECORD IS WRITTEN AT NORMAL OR ABNORMAL          @G742PJW 00406300
*        TERMINATION OF THE FOLLOWING:                         @G742PJW 00406400
*            A BATCH JOB STEP                                  @G742PJW 00406500
*            A BATCH JOB                                       @G742PJW 00406600
*            A TSO SESSION                                     @G742PJW 00406700
*            A STARTED TASK                                    @G742PJW 00406800
*                                                              @G742PJW 00406900
*            THE EXPIRATION OF THE ACCOUNTING INTERVAL FOR ANY @G742PJW 00407200
*            OF THE ABOVE WORK CLASSES.                        @G742PJW 00407500
*                                                              @G742PJW 00407800
*        THE RECORD LENGTH IS VARIABLE. MINIMUM OF XXX.        @G742PJW 00408100
*                                                              @G742PJW 00408400
*********************************************************************** 00408700
SMFRCD30 DSECT                                                 @G742PJW 00409000
*                                                              @G742PJW 00409300
*        SMF RECORD HEADER SEGMENT                             @G742PJW 00409600
*                                                              @G742PJW 00409900
         DS    0D                                              @G742PJW 00410200
SMF30RPS DS    0CL176' '               FIXED LENGTH HEADER         @LFC 00410500
SMF30RHD DS    0CL24' '                RECORD HEADER SECTION       @02C 00410800
SMF30LEN DS    BL2'0'                  RECORD LENGTH           @G742PJW 00411100
SMF30SEG DS    BL2'0'                  SEGMENT DESCRIPTOR      @G742PJW 00411400
SMF30FLG DC    BL1'0'                  HEADER FLAG BYTE -      @G742PJW 00411700
*                                      SYSTEM INDICATOR                 00412000
*                                      BIT 0 - SUBSYSTEM IDENTIFICATION 00412300
*                                              FOLLOWS SYSTEM           00412600
*                                              IDENTIFICATION           00412900
*                                      BIT 1 - SUBTYPES USED       @D7A 00413200
*                                      BIT 2   RESERVED            @DOC 00413500
*                                      BIT 3-6 VERSION INDICATORS  @D2C 00413900
*                                                                 3@D2D 00414300
*                                      BIT 7 - RESERVED            @D2C 00414700
*                                      See 'Standard SMF Record    @D2C 00415100
*                                      Header' for details.        @D2C 00415500
SMF30RTY DC    BL1'0'                  RECORD TYPE 30          @G742PJW 00415900
SMF30TME DC    CL4' '                  TIME RECORD WAS MOVED            00416200
*                                      TO SMF BUFFER, IN HUNDREDTHS     00416500
*                                      OF A SECOND.            @VS49840 00416800
SMF30DTE DC    PL4'0000'               DATE THAT THE RECORD             00417100
*                                      WAS MOVED TO THE SMF BUFFER,     00417400
*                                      IN THE FORM OcyydddF(WHERE       00417700
*                                      F IS THE SIGN). FOR A TSO        00418000
*                                      SESSION, THE DATE IS THE LOGOFF  00418300
*                                      DATE.                   @G742PJW 00418600
SMF30SID DC    CL4' '                  SYSTEM IDENTIFICATION   @G742PJW 00418900
SMF30WID DC    CL4'0'     OUCBSUBN     SUBSYSTEM IDENTIFIER    @G743PJW 00419200
SMF30STP DC    BL2'01'                 RECORD SUBTYPE          @G860P27 00419500
*                                                                       00419800
*        SELF DEFINING SECTION                                 @G742PJW 00420100
*                                                                       00420400
SMF30SDS DS    0CL152' '              SELF DEFINING SECTION        @LFC 00420700
SMF30SOF DS    F                      OFFSET TO SUBSYSTEM SEGTION       00421000
*                                     FROM START OF RECORD, INCLUDING   00421300
*                                     THE RDW                           00421600
*                                                              @VS49902 00421900
SMF30SLN DC    BL2'0'                 LENGTH OF SUBSYSTEM SECTION       00422200
*                                                              @G742PJW 00422500
SMF30SON DC    BL2'0'                 NUMBER OF SUBSYSTEM SECTIONS      00422800
*                                                              @G742PJW 00423100
SMF30IOF DS    F                      OFFSET TO IDENTIFICATION          00423400
*                                     SECTION FROM START OF RECORD,     00423700
*                                     INCLUDING THE RDW        @VS49902 00424000
SMF30ILN DC    BL2'0'                 LENGTH OF IDENTIFICATION          00424300
*                                     SECTION                  @G742PJW 00424600
SMF30ION DC    BL2'0'                 NUMBER OF IDENTIFICATION          00424900
*                                     SECTIONS                 @G742PJW 00425200
SMF30UOF DS    F                      OFFSET TO I/O ACTIVITY SECTION    00425500
*                                     FROM START OF RECORD, INCLUDING   00425800
*                                     THE RDW                  @VS49902 00426100
SMF30ULN DC    BL2'0'                 LENGTH OF I/O ACTIVITY SECTION    00426400
*                                                              @G742PJW 00426700
SMF30UON DC    BL2'0'                 NUMBER OF I/O ACTIVITY SECTIONS   00427000
*                                                              @G742PJW 00427300
SMF30TOF DS    F                      OFFSET TO COMPLETION SECTION      00427600
*                                     FROM START OF RECORD, INCLUDING   00427900
*                                     THE RDW                  @VS49902 00428200
SMF30TLN DC    BL2'0'                 LENGTH OF COMPLETION SECTION      00428500
*                                                              @VS49902 00428800
SMF30TON DC    BL2'0'                 NUMBER OF COMPLETION SECTIONS     00429100
*                                                              @G742PJW 00429400
SMF30COF DS    F                      OFFSET TO PROCESSOR SECTION       00429700
*                                     FROM START OF RECORD, INCLUDING   00430000
*                                     THE RDW                  @VS49902 00430300
SMF30CLN DC    BL2'0'                 LENGTH OF PROCESSOR SECTION       00430600
*                                                              @G742PJW 00430900
SMF30CON DC    BL2'0'                 NUMBER OF PROCESSOR SECTIONS      00431200
*                                                              @G742PJW 00431500
SMF30AOF DS    F                      OFFSET TO ACCOUNTING SECTION      00431800
*                                     FROM START OF RECORD, INCLUDING   00432100
*                                     THE RDW                  @VS49902 00432400
SMF30ALN DC    BL2'0'                 LENGTH OF ACCOUNTING SECTION      00432700
*                                                              @G742PJW 00433000
SMF30AON DC    BL2'0'                 NUMBER OF ACCOUNTING SECTIONS     00433300
*                                                              @G742PJW 00433600
SMF30ROF DS    F                      OFFSET TO STORAGE SECTION         00433900
*                                     FROM START OF RECORD, INCLUDING   00434200
*                                     THE RDW                  @VS49902 00434500
SMF30RLN DC    BL2'0'                 LENGTH OF STORAGE SECTION         00434800
*                                                              @G742PJW 00435100
SMF30RON DC    BL2'0'                 NUMBER OF STORAGE SECTIONS        00435400
*                                                              @G742PJW 00435700
SMF30POF DS    F                      OFFSET TO PERFORMANCE SECTION     00436000
*                                     FROM START OF RECORD, INCLUDING   00436300
*                                     THE RDW                  @VS49902 00436600
SMF30PLN DC    BL2'0'                 LENGTH OF PERFORMANCE SECTIONS    00436900
*                                                              @G742PJW 00437200
SMF30PON DC    BL2'0'                 NUMBER OF PERFORMANCE SECTIONS    00437500
*                                                              @G742PJW 00437800
SMF30OOF DS    F                      OFFSET TO OPERATOR SECTION        00438100
*                                     FROM START OF RECORD, INCLUDING   00438400
*                                     THE RDW                  @VS49902 00438700
SMF30OLN DC    BL2'0'                 LENGTH OF OPERATOR SECTION        00439000
*                                                              @G742PJW 00439300
SMF30OON DC    BL2'0'                 NUMBER OF OPERATOR SECTIONS       00439600
*                                                              @G742PJW 00439900
SMF30EOF DS    F                      OFFSET TO EXCP SECTION            00440200
*                                     FROM START OF RECORD, INCLUDING   00440500
*                                     THE RDW                  @VS49902 00440800
SMF30ELN DC    BL2'0'                 LENGTH OF EXCP SECTIONS IN THIS   00441100
*                                     RECORD                   @VS49902 00441400
SMF30EON DC    BL2'0'                 NUMBER OF EXCP SECTIONS IN THIS   00441700
*                                     RECORD                   @VS49902 00442000
SMF30EOR DC    XL2'0'                 NUMBER OF EXCP SEGMENTS IN        00442300
*                                     SUBSEQUENT RECORDS. WHEN THIS     00442600
*                                     NUMBER EXCEEDS TWO BYTES, IT IS   00442900
*                                     INVALID. SEE SMF30EOS FOR THE     00443200
*                                     CORRECT VALUE.               @01C 00443500
SMF30RVD DC    BL2'0'                 RESERVED                     @01C 00443800
SMF30EOS DC    BL4'0'                 NUMBER OF EXCP SECTIONS           00444100
*                                     IN SUBSEQUENT RECORDS        @01C 00444400
SMF30DRO DC    BL4'0'                 Offset of APPC/MVS                00444500
*                                     Resource Section from start of    00444600
*                                     record, including the RDW    @04C 00444700
SMF30DRL DC    BL2'0'                 Length of APPC/MVS                00444800
*                                     Resource Section             @04A 00444900
SMF30DRN DC    BL2'0'                 Number of APPC/MVS                00445000
*                                     Resource Sections in this record. 00445100
*                                     The number should be 0 or 1. @04A 00445200
*                                                                 2@DPD 00445300
SMF30ARO DC    BL4'0'                 Offset of APPC/MVS Cumulative     00445400
*                                     Resource Section from start of    00445500
*                                     record, including the RDW    @LMA 00445600
SMF30ARL DC    BL2'0'                 Length of APPC/MVS Cumulative     00445700
*                                     Resource Section             @LMA 00445800
SMF30ARN DC    BL2'0'                 Number of APPC/MVS Cumulative     00445900
*                                     Resource Sections in this record. 00446000
*                                     The number should be 0 or 1. @LMA 00446100
SMF30OPO DC    BL4'0'                 Offset of OpenMVS Process         00447500
*                                     Sections                     @0OC 00447600
SMF30OPL DC    BL2'0'                 Length of OpenMVS Process         00447700
*                                     Section                      @0OC 00447800
SMF30OPN DC    BL2'0'                 Number of OpenMVS Process         00447900
*                                     Sections in This Record      @0OC 00448000
SMF30OPM DC    BL4'0'                 Number of OpenMVS Process         00448100
*                                     Sections in Subsequent Records    00448200
*                                                                  @0OC 00448300
SMF30UDO DC    F'0'                   Offset of Usage Sections     @06A 00448400
SMF30UDL DC    XL2'0'                 Length of Usage Section      @06A 00448500
SMF30UDN DC    XL2'0'                 Number of Usage Sections in  @06C 00448600
*                                     This Record                  @06A 00448700
SMF30UDS DC    F'0'                   Number of Usage Sections in  @06C 00448800
*                                     Subsequent Records           @06A 00448900
SMF30RMO DC    BL4'0'                 Offset of first ARM Section       00449000
*                                     from beginning of record          00449100
*                                     (including the RDW)          @L3A 00449200
SMF30RML DC    BL2'0'                 Length of each ARM Section        00449300
*                                     on the record                @L3A 00449400
SMF30RMN DC    BL2'0'                 Number of ARM sections on         00449500
*                                     this record                  @L3A 00449600
SMF30RMS DC    BL4'0'                 Number of ARM sections on         00449700
*                                     subsequent records           @L3A 00449800
SMF30MOF DC    BL4'0'                 Offset to MultiSystem Enclave     00449900
*                                     Remote System Data section.  @LFA 00450000
SMF30MLN DC    BL2'0'                 Length of MultiSystem Enclave     00450100
*                                     Remote System Data section   @LFA 00450200
SMF30MNO DC    BL2'0'                 Number of MultiSystem Enclave     00450300
*                                     Remote System Data sections       00450400
*                                     in this record.              @LFA 00450500
SMF30MOS DC    BL4'0'                 Number of MultiSystem Enclave     00450600
*                                     Remote System Data sections       00450700
*                                     in subsequent records.       @LFA 00450800
*                                                                       00450900
*        PRODUCT OR SUBSYSTEM SECTION                          @G742PJW 00451000
*                                                                       00451100
SMF30PSS DSECT ,                                               @G742PJW 00451200
SMF30TYP DC    BL2'0'            SUB TYPE IDENTIFICATION FOR            00451300
*                                  TYPE 30                     @G742PJW 00451400
*                                  1 = JOB START               @G742PJW 00451500
*                                  2 = INTERVAL RECORD         @G742PJW 00451600
*                                  3 = STEP TERMINATION DELTA           00451700
*                                  PRODUCED ONLY WHEN INTERVAL          00451800
*                                  ACCOUNTING IS SPECIFIED. THE DATA    00451900
*                                  REPRESENTS ACTIVITY SINCE THE LAST   00452000
*                                  INTERVAL WAS WRITTEN.       @G742PJW 00452100