*%GOTO IFABGN1;  /*                                                     00060002
         MACRO                                                          00070002
&NAME    IFASMFR &RECTYPE                                            */ 00072002
.* *                                                                    00072700
.* * MACRO-NAME = IFASMFR                                         @03C  00073400
.* *                                                                    00074100
.* *                                                                    00077600
.* * PROPRIETARY STATEMENT =                                            00077700
.* *                                                                    00077800
.* *  LICENSED MATERIALS - PROPERTY OF IBM                              00077900
.* *  THIS MACRO IS "RESTRICTED MATERIALS OF IBM"                       00078000
.* *  5655-068 (C) COPYRIGHT IBM CORP. 1982, 1993                 @LYC  00078100
.* *  SEE COPYRIGHT INSTRUCTIONS.                                       00078200
.* *                                                                    00078300
.* * STATUS = HBB5510                                             @LYC  00078400
.* *                                                                    00078900
.* * EXTERNAL CLASSIFICATION: GUPI                                @P4A  00079100
.* * END OF EXTERNAL CLASSIFICATION:                              @P4A  00079300
.* *                                                                    00079500
*%IFABGN1: ;                                                            00080002
* /*                                                                 */ 00090002
* /* METHOD OF ACCESS                                                */ 00098002
* /*  PL/S - USER DEFINES MACRO VARIABLE IFARXX WHERE XX=RECORD NUM  */ 00098402
* /*         DECLARE SMFXXPTR PTR(31) OR RESPECIFY FOR BASE          */ 00098802
* /*         INCLUDE MACRO FROM LIBRARY                              */ 00099202
* /*          EXAMPLE %IFAR08 = 'YES',           NOTE. THE COMMA REP-*/ 00099602
* /*                  DCL SMF08PTR PTR(31),      RESENTS A SEMI-COLON*/ 00106402
* /*                  %INCLUDE SYSLIB(IFASMFR),  BUT ISN'T TO AVIOD  */ 00109802
* /*                                             A DIAGNOSTIC.       */ 00113202
* /*                                                                 */ 00113300
* /*                                                                 */ 00113400
* /*         THIS MACRO PROCESSES RECORDS IN THE RANGE 00-06. IT     */ 00113500
* /*         ACTS AS A ROUTER TO OTHER MACROS TO PROCESS OTHER       */ 00113600
* /*         RECORDS AS FOLLOWS:                                     */ 00113700
* /*                                                                 */ 00113800
* /*             MACRO        RECORDS                                */ 00113900
* /*            ********      *******                                */ 00114000
* /*            IFASMFR1      07-19                                  */ 00114100
* /*            IFASMFR2      20-27                                  */ 00114200
* /*            IFASMFR3      28-36                                  */ 00114300
* /*            IFASMFR4      37-46                                  */ 00114400
* /*            IFASMFR5      47-54                                  */ 00114500
* /*            IFASMFR6      55-69                                  */ 00114600
* /*            IFASMFR9      80-84                              @07C*/ 00114700
* /*            IFASMFRA      85-103                             @07C*/ 00114800
* /*            IFASMFRB      104-113                                */ 00114900
* /*            IFASMFRC      114-123                                */ 00115000
* /*            IFASMFRD      124-127                                */ 00115100
*%GOTO IFABGN2;   /*                                                    00116602
.*                                                                      00146700
.*                                                                      00176800
.* CHANGE ACTIVITY:                                                     00206900
.*    Z40MPTH, ZA05171, Z40FPTH, ZA10800, G387P27, ZA74830,             00237000
.*    D5A    , ZA75776, T7A    , ZA80943, T8A    , DAA, YA15607,        00252000
.*    LCA    , LBA    , DFA    , LAA    , LEA                           00267000
.*                                                                      00297200
.*    OZ74830 - UPDATE TYPE 6 RECORD, ADD SMF6EFMN FIELD      @ZA74830  00327300
.*    OZ75776 - CHANGE DECLARE LEVEL ON SMF6END               @ZA75776  00357400
.*    OZ80943 - REMOVE MACROS IFASMFR7 AND IFASMFR8 SINCE     @ZA80943  00387500
.*              THEIR FUNCTIONS HAVE BEEN TAKEN OVER BY RMF.  @ZA80943  00417600
.*    OY15607 - ADD RESERVED FIELDS SMF4RSV1 AND SMF5RSV1.    @YA15607  00432600
.*    OY27577 - PSF TYPE 6 CHANGES INCLUDED IN JBB3313        @YA27577  00440100
.*    TYPE 6  - DOC CORRECTIONS FOR THE SMF6JNM FIELD             @P3A  00443900
.*    TYPE 4  - Delete SMF4VDV                                   1@LYA  00445800
.*    TYPE 4  - Documentation change to SMF4PGNO field            @LZA  00446400
.*    TYPE 5  - Documentation change to SMF5PGNO field            @LZA  00447000
.*    TYPE 0  - Include system-related data fields                @01A  00447300
.*    Add External Classification                                 @P4A  00447500
.*    TYPE 6  - Add fields in support of FULL BIN, COMSETUP, and  @04A  00455000
.*              MVS Download Feature.                             @04A  00462500
.*    TYPE 6  - Reserve subsystem identification of X'0009' for   @05A  00465000
.*              IP PrintWay.                                      @05A  00467500
.*    TYPE 6  - Increase file transfer section to have print      @06A  00468100
.*              queue name for IP PrintWay                        @06A  00468700
.*    OW25672 - Shift record types 85-88 mappings to IFASMFR9.    @07A  00469300
.*    TYPE 6  - Add fields in support of PSF/MVS 3.1.0.           @08A  00469600
.*                                                                      00470000
.*    $PV=PAJ0111 ,JBB2125,830627,PDFS: CHANGE SIZE OF SMF4RSH0   @PVA  00477800
.*    $D5=DCR89   ,JBB2125,830627,PDFS: UPDATE TYPE 6 RECORD      @D5A  00507900
.*    $T7=UZ90334 ,JBB2125,830627,PDFS: TRANSFER RECORDS TO JES   @T7A  00538000
.*    $T8=UZ90378 ,JBB2133,840905,PDFS: TYPE 6 RESTRUCTURE        @T8A  00568100
.*    $T6=UZ90370 ,JBB2133,841215,PDFS: UPDATE TYPE 6 FOR 3820    @T6A  00598200
.*    $DA=DCR132  ,JBB2220,850515,PDFS: >1635 DD STATEMENTS       @DAA  00628300
.*    $TB=DCR301  ,HBB3310,860102,PDFS: 10K JOB SUPPORT           @TBA  00643300
.*    $LB=HIPER   ,JBB3311,880418,PDFS: HIPERSPACE SUPPORT        @LBA  00644900
.*    $DF=DCR29   ,JBB3311,880718,PDFS: CREAD PAGE MISS COUNT     @DFA  00646500
.*    $LC=B1SEC   ,JBB3313,880404,PDFS: SECURITY RELATED SUPPORT  @LCA  00648300
.*    $QX=PGP0273 ,JBB3313,890331,PDWC: TYPE 6 LEVEL INDICATOR    @QXA  00648600
.*    $DK=DCR0016 ,JBB3313,890612,PDWC: ADDITIONAL PSF SUPPROT    @DKA  00648900
.*    $DL=DCR0037 ,JBB3313,880612,PDWC: 'DSNAME' FIELD LENGTH CHG @DLA  00649200
.*    $DM=DCR0050 ,JBB3313,880716,PDBR: ADDITIONAL PSF SUPPORT    @DMA  00649500
.*    $LA=SERVC   ,JBB3320,871217,PDFS: >1440 TIME SUPPORT        @LAA  00649900
.*    $P1=PHB1095 ,JBB3320,890328,PDBR: TYPE 4 BASING ERROR       @P1A  00651500
.*    $LE=EMVS2   ,HBB4410,881024,PDFS: ENTERPRISE II - TYPE 6    @LEA  00653300
.*    $P2=PEO4165 ,HBB4410,900507,PDBR: SMF6LEV4 VALUE ERROR      @P2A  00655800
.*    $02=OY30945 ,JBB2220,900409,PDBR: TYPE 6 CHNGES FOR PSF 4.0 @02A  00657100
.*    $P3=PKB3728 ,HBB4430,920731,PDMF: 10X SMF6JNM DOC ERROR     @P3A  00657700
.*    $LY=4DGIT   ,HBB5510,930304,PDSL: SMF 4K UCB Enhancement    @LYA  00657900
.*    $LZ=WLMI    ,HBB5510,930715,PDOH: SMF-WLM Support           @LZA  00658000
.*    $01=OW03229 ,HBB5510,940325,PDOH: System data in SMF record @01A  00658100
.*    $03=OW02855 ,JBB3313,940115,PDBR: Usage Data Reporting      @03A  00658300
.*    $P4=PN71727 ,HBB5520,941020,PDOH: CDPI: SHOWHDR Cleanup     @P4A  00662800
.*    $04=OW13246 ,HBB4420,950601,PDOH: Type 6 Enhancements       @04A  00667300
.*    $05=OW21583 ,HBB4420,960801,PDOH: Type 6 TCP/IP Support     @05A  00671800
.*    $06=OW25152 ,HBB4420,970630,PDRR: IP Printway Enhancement   @06A  00676600
.*    $07=OW25672 ,HBB5510,970630,PDRR: OAM Type 85 Enhancement   @07A  00677400
.*    $08=OW35685 ,HBB5520,981030,PDOH: PSF/MVS 3.1.0 Support     @08A  00677800
.*                                                                      00678300
*  THIS IS AN SMF MACRO WHICH CONTROLS THE BUILDING OF SMF RECORDS. THE 00688500
*  REQUIRED FORMAT IS                                                   00718600
*                                                                       00750002
*        IFASMFR  &RECTYPE                                              00800002
*                                                                       00950002
*  NOTE: VALUES FOR &RECTYPE MUST BE ENCLOSED IN PARENS(UNLESS ONLY 1). 01000000
*                                                                       01300002
         LCLA  &NUM,&B                                                  01500002
.* &NUM IS SET TO THE NUMBER OF SUBSTRING ITEMS IN THE FIRST PARAMETER  01550002
.* AND &B IS USED TO POINT AT EACH SUBSTRING ITEM.                      01600002
         AIF   ('&RECTYPE' EQ '').E1                                    01900002
&NUM     SETA  N'&RECTYPE                                               02000002
         AGO   .CONTC                                                   02050002
.CONTB   ANOP                                                           02100002
&NUM     SETA  &NUM-1                                                   02150002
.CONTC   ANOP                                                           02200002
         AIF   (&NUM LE 0).OUT                                          02250002
&B       SETA  &B+1                                                     02300002
.RTYCHK  AIF   ('&RECTYPE(&B)' EQ '').E3                                02350002
         AIF   (&RECTYPE(&B) GT 127 OR &RECTYPE(&B) LT 0).E5   @Z40FPTH 02400000
         AGO   .CONTA                                                   02450002
.E1      ANOP                                                           02500002
         SPACE 3                                                        02550002
         MNOTE 8,'PARAMETERS OMITTED, PROCESSING TERMINATED'            02600002
         MEXIT                                                          02650002
.E3      ANOP                                                           02900002
         SPACE 3                                                        02950002
         MNOTE 4,'NULL RECORD TYPE PASSED'                              03000002
         AGO   .CONTB                                                   03050002
.E5      ANOP                                                           03300002
         SPACE 3                                                        03350002
         MNOTE 4,'&RECTYPE(&B) INVALID RECORD TYPE SPECIFIED'           03400002
         AGO   .CONTB                                                   03450002
.CONTA   AIF   (&RECTYPE(&B) GE 0 AND &RECTYPE(&B) LE 6).G0             03500000
         AIF   (&RECTYPE(&B) GE 7 AND &RECTYPE(&B) LE 19).G1            03550000
         AIF   (&RECTYPE(&B) GE 20 AND &RECTYPE(&B) LE 27).G2           03600000
         AIF   (&RECTYPE(&B) GE 28 AND &RECTYPE(&B) LE 36).G3           03650000
         AIF   (&RECTYPE(&B) GE 37 AND &RECTYPE(&B) LE 46).G4           03700000
         AIF   (&RECTYPE(&B) GE 47 AND &RECTYPE(&B) LE 54).G5           03750000
         AIF   (&RECTYPE(&B) GE 55 AND &RECTYPE(&B) LE 69).G6           03800000
.*  REMOVED REFERENCES TO IFASMFR7 AND IFASMFR8 - TWO LINES  @ZA80943   03850000
         AIF   (&RECTYPE(&B) GE 80 AND &RECTYPE(&B) LE 84).G9      @07C 03900000
         AIF   (&RECTYPE(&B) GE 85 AND &RECTYPE(&B) LE 103).GA     @07C 03950000
         AIF   (&RECTYPE(&B) GE 104 AND &RECTYPE(&B) LE 113).GB         04000000
         AIF   (&RECTYPE(&B) GE 114 AND &RECTYPE(&B) LE 123).GC         04050000
         AIF   (&RECTYPE(&B) GE 124 AND &RECTYPE(&B) LE 127).GD         04100000
         AGO   .E5                                                      06050002
.G0      ANOP                                                           06100000
         AIF   (&RECTYPE(&B) EQ 0).IFAS000                              06250002
         AIF   (&RECTYPE(&B) EQ 2).IFAS002                              06350002
         AIF   (&RECTYPE(&B) EQ 3).IFAS003                              06400002
         AIF   (&RECTYPE(&B) EQ 4).IFAS004                              06450002
         AIF   (&RECTYPE(&B) EQ 5).IFAS005                              06500002
         AIF   (&RECTYPE(&B) EQ 6).IFAS006                              06700002
         AGO   .E5                                                      07000002
.G1      ANOP                                                           07042800
         IFASMFR1 &RECTYPE(&B)                                          07085600
         AGO   .CONTB                                                   07128400
.G2      ANOP                                                           07171200
         IFASMFR2 &RECTYPE(&B)                                          07214000
         AGO   .CONTB                                                   07256800
.G3      ANOP                                                           07299600
         IFASMFR3 &RECTYPE(&B)                                          07342400
         AGO   .CONTB                                                   07385200
.G4      ANOP                                                           07428000
         IFASMFR4 &RECTYPE(&B)                                          07470800
         AGO   .CONTB                                                   07513600
.G5      ANOP                                                           07556400
         IFASMFR5 &RECTYPE(&B)                                          07599200
         AGO   .CONTB                                                   07642000
.G6      ANOP                                                           07684800
         IFASMFR6 &RECTYPE(&B)                                          07727600
         AGO   .CONTB                                                   07770400
.*  REMOVED REFERENCES TO IFASMFR7 AND IFASMFR8 - SIX LINES  @ZA80943   07813200
.G9      ANOP                                                           07856000
         IFASMFR9 &RECTYPE(&B)                                          07898800
         AGO   .CONTB                                                   07941600
.GA      ANOP                                                           07984400
         IFASMFRA &RECTYPE(&B)                                          08027200
         AGO   .CONTB                                                   08070000
.GB      ANOP                                                           08112800
         IFASMFRB &RECTYPE(&B)                                          08155600
         AGO   .CONTB                                                   08198400
.GC      ANOP                                                           08241200
         IFASMFRC &RECTYPE(&B)                                          08284000
         AGO   .CONTB                                                   08326800
.GD      ANOP                                                           08369600
         IFASMFRD &RECTYPE(&B)                                          08412400
         AGO   .CONTB                                                   08455200
.OUT     MEXIT                                                          08500002
.IFAS000 ANOP                                                           08550002
         EJECT                                                          08600002
*  THIS DSECT DEFINES THE FORMAT FOR RECORD TYPE 0 (IPL RECORD)         08650002
*  RECORD LENGTH IS 31 BYTES                                            08700002
*                                                                       08750002
         DS    0F        ALIGN TO FULL WORD BOUNDARY                    08800002
SMFRCD0  EQU   *         HEADER SEGMENT                                 08850002
SMF0LEN  DS    BL2'0'    RECORD LENGTH                                  08900002
SMF0SEG  DS    BL2'0'    SEGMENT DESCRIPTOR                             08950002
SMF0FLG  DC    BL1'0'    HEADER FLAG BYTE                               09000002
SMF0RTY  DC    BL1'0'    RECORD TYPE 0                                  09050002
SMF0TME  DC    BL4'0'    TOD, USING FORMAT FROM TIME MACRO W/BIN. INTVL 09100000
SMF0DTE  DC    PL4'0000'      DATE IN PACKED DECIMAL FORM: 00YYDDDF     09150002
SMF0SID  DC    CL4' '    SYSTEM IDENTIFICATION                   Y02901 09250000
SMF0JWT  DC    BL4'0'    JOB WAIT TIME DEFAULT VALUE IN MINUTES(BINARY) 09350000
SMF0BUF  DC    BL4'0'    SMF BUFFER SIZE IN BYTES(BINARY)               09400000
SMF0VST  DC    BL4'0'    VIRTUAL STORAGE SIZE IN K BLOCKS(BINARY)XM4432 09450000
SMF0OPT  DC    BL1'0'    OPTIONS BYTE:                                  09500002
*                        BIT0 - SYSTEM & JOB DATA TO BE COLLECTED       09550002
*                        BIT1 - STEP DATA TO BE COLLECTED               09600002
*                        BIT2 - EXITS REQUESTED                         09650002
*                        BIT3 - DATA SET ACCOUNTING                     09700002
*                        BIT4 - VOLUME ACCOUNTING                       09750002
*                        BIT5 - RESERVED(WAS ESV IN 14 AND 15)          09800002
*                        BIT6 - TEMPORARY-DATA-SET SCRATCH RECORDS      09850002
*                        BIT7 - =0 BACKGROUND JOB; =1 FOREGROUND JOB    09900002
SMF0RST  DC    BL4'0'    REAL STORAGE SIZE IN K BLOCKS(BINARY)   XM4432 09950000
SMF0RSV  DC    BL1'0'    Reserved                                  @01A 09960000
SMF0OSL  DC    CL8' '    MVS Product name                          @01A 09970000
SMF0SYN  DC    CL8' '    System name                               @01A 09980000
SMF0SYP  DC    CL8' '    Sysplex name                              @01A 09990000
         AGO   .CONTB                                                   10000002
.IFAS002 ANOP                                                           11600002
         EJECT                                                          11650002
* THIS RECORD IS WRITTEN BY THE SMF DUMP UTILITY PROGRAM AT THE         11700002
* BEGINNING OF A DUMP DATA SET. RECORD LENGTH IS 14 BYTES               11750002
*                                                                       11800002
         DS    0F        ALIGN TO FULL WORD BOUNDARY                    11850002
SMFRCD2  EQU   *         HEADER SEGMENT                                 11900002
SMF2LEN  DS    BL2'0'    RECORD LENGTH                                  11950002
SMF2SEG  DS    BL2'0'    SEGMENT DESCRIPTOR                             12000002
SMF2FLG  DC    BL1'0'    HEADER FLAG BYTE                               12050002
SMF2RTY  DC    BL1'0'    RECORD TYPE 2                                  12100002
SMF2TME  DC    BL4'0'    TOD, USING FORMAT FROM TIME MACRO W/BIN. INTVL 12150000
SMF2DTE  DC    PL4'0000'      DATE IN PACKED DECIMAL FORM: 00YYDDDF     12200002
SMF2SID  DC    CL4' '    SYSTEM IDENTIFICATION                   Y02901 12300000
         AGO   .CONTB                                                   12400002
.IFAS003 ANOP                                                           12450002
         EJECT                                                          12500002
* THIS RECORD IS WRITTEN BY THE SMF DUMP UTILITY PROGRAM AT THE END     12550002
* OF A DUMP DATA SET. RECORD LENGTH IS 14 BYTES.                        12600002
*                                                                       12650002
         DS    0F        ALIGN TO FULL WORD BOUNDARY                    12700002
SMFRCD3  EQU   *         HEADER SEGMENT                                 12750002
SMF3LEN  DS    BL2'0'    RECORD LENGTH                                  12800002
SMF3SEG  DS    BL2'0'    SEGMENT DESCRIPTOR                             12850002
SMF3FLG  DC    BL1'0'    HEADER FLAG BYTE                               12900002
SMF3RTY  DC    BL1'0'    RECORD TYPE 3                                  12950002
SMF3TME  DC    BL4'0'    TOD, USING FORMAT FROM TIME MACRO W/BIN. INTVL 13000000
SMF3DTE  DC    PL4'0000'      DATE IN PACKED DECIMAL FORM: 00YYDDDF     13050002
SMF3SID  DC    CL4' '    SYSTEM IDENTIFICATION                   Y02901 13100000
         AGO   .CONTB                                                   13200002
.IFAS004 ANOP                                                           13250002
         EJECT                                                          13300002
* THIS RECORD IS WRITTEN AT NORMAL OR ABNORMAL TERMINATION OF A STEP.   13350002
* RECORD LENGTH IS VARIABLE. MINIMUM OF 137.                            13400002
*                                                                       13450002
         DS    0F        ALIGN TO FULL WORD BOUNDARY                    13500002
SMFRCD4  EQU   *         HEADER SEGMENT                                 13550002
SMF4LEN  DS    BL2'0'    RECORD LENGTH                                  13600002
SMF4SEG  DS    BL2'0'    SEGMENT DESCRIPTOR                             13650002
SMF4FLG  DC    BL1'0'    HEADER FLAG BYTE                               13700002
SMF4RTY  DC    BL1'0'    RECORD TYPE 4                                  13750002
SMF4TME  DC    BL4'0'    TOD USING FORMAT FROM TIME MACRO W/BIN. INTVL. 13800000
SMF4DTE  DC    PL4'0000' DATE IN PACKED DECIMAL FORM: OOYYDDDF          13850002
SMF4SID  DC    CL4' '    SYSTEM IDENTIFICATION                   Y02901 13900000
SMF4JBN  DC    CL8' '    JOB NAME                                       14000000
SMF4RST  DC    BL4'0'    READER START TIME (IN 100THS SECONDS)          14050000
SMF4RSD  DC    PL4'0000' READER START DATE                              14100002
SMF4UIF  DC    CL8' '    USER IDENTIFICATION FIELD                      14150000
SMF4STN  DC    BL1'0'    STEP NUMBER                                    14200002
SMF4SIT  DC    BL4'0'    STEP INITIATION TIME (IN 100THS SECONDS)       14250000
SMF4STID DC    PL4'0000' STEP INITIATION DATE (PACKED DECIMAL FORMAT)   14300002
SMF4NCI  DC    BL4'0'    NUMBER OF CARD IMAGES IN DD DATA OR DD *       14350000
*                        DATA SETS                                      14400002
SMF4SCC  DC    BL2'0'    STEP COMPLETION CODE                  @G50FPRL 14450000
SMF4PRTY DC    BL1'0'    PRIORITY AT WHICH STEP WAS DISPATCHED :        14500002
*                        ACTUAL PRIORITY=251-(15-USER PRIORITY)*16      14550002
SMF4PGMN DC    CL8' '    PROGRAM NAME                                   14600002
SMF4STMN DC    CL8' '    STEP NAME                                      14650002
SMF4RSV5 DC    BL2'0'    RESERVED                                  @PVC 14690000
SMF4SYST DC    BL2'0'    SYSTEM AREA USED(TOP OF PROVATE AREA)   Y02901 14730000
SMF4H0ST DC    BL2'0'    STORAGE USED(VIRT OR REAL-SEE SMF4RIN)         14770000
SMF4STU  EQU   SMF4H0ST  (LOW OF PRIVATE AREA)                   Y02901 14810002
SMF4RV1  DC    BL2'0'    RESERVED                                  @PVC 14832500
SMF4RSH0 DC    BL4'0'    REGION SIZE REQ(PRIVATE AREA 1K UNIT)     @PVM 14855000
SMF4PRV  EQU   SMF4RSH0                                            @PVM 14877500
SMF4SPK  DC    1BL1'0'   STORAGE PROTECT KEY                     A40791 14900002
SMF4STI  DC    1BL1'0'   STEP TERMINATION INDICATOR                     14950002
*                        BIT0 - RESERVED                                15000002
*                        BIT1 - CANCELLED AT EXIT IEFUJV                15050002
*                        BIT2 - CANCELLED AT EXIT IEFUJI                15100002
*                        BIT3 - CANCELLED AT EXIT IEFUSI                15150002
*                        BIT4 - CANCELLED AT EXIT IEFACTRT              15200002
*                        BIT5 - STEP IS TO BE RESTARTED        @YL026WA 15250002
*                        BIT6 - 0=NORMAL COMPLETION                     15300002
*                               1=ABEND                                 15350002
*                        BIT7 - 1=STEP FLUSHED                          15400002
SMF4RV2  DC    BL2'0'    RESERVED                                A40791 15450000
SMF4AST  DC    BL4'0'    DEVICE ALLOC START TIME                 A40791 15500000
SMF4PPST DC    BL4'0'    PROBLEM PROGRAM START TIME              A40791 15550000
SMF4RV3  DC    BL1'0'    RESERVED                              @YL026WA 15600002
SMF4SRBT DC    BL3'0'    STEP CPU TIME UNDER SRB(.01 SEC)      @YL026WA 15612000
SMF4RIN  DC    BL2'0'    RECORD INDICATORS                              15624000
*                        BIT0-3 RESERVED                           @DAC 15630000
*                         4=1 FIELD SMF4SETM NOT VALID FOR SP410   @LAC 15636000
*                            WHEN ACTJTIME >3 BYTES FOR TYPE 30    @DGA 15642000
*                         5 =1 DEVICE DATA NOT RECORDED            @DAA 15648000
*                         6 =1 POSSIBLE ERROR IN DEV ENTRY     @YM02618 15660002
*                         7 =0 STOR IS VIRTUAL, =1 STOR IS REAL@YM02618 15700002
*                         8-15 RESERVED                        @YM02618 15750002
SMF4RLCT DC    BL2'0'    OFFSET TO RELOCATE SECTION                     15800000
SMF4LENN DC    BL2'0'    LENGTH OF EXCP PORTION OF RECORD               15850000
*        FOR EACH DEVICE ASSIGNED TO EACH DATA SET THERE IS AN 8 BYTE   15900002
*        ENTRY HAVING THE FOLLOWING FORMAT:                             15950002
*                                                                       16000002
*     Note: Virtual I/O Devices are identified by the following:   @LYA 16008300
*           Device Class 0                                         @LYA 16016600
*           Unit Type 0                                            @LYA 16024900
*           Device Number x'7FFF'                                  @LYA 16033200
*                                                                       16041500
SMF4DEVC DC    BL1'0'    DEVICE CLASS                                   16050002
SMF4UTYP DC    BL1'0'    UNIT TYPE                                      16100002
SMF4CUAD DC    BL2'0'    Device Number                             @LYC 16137500
*                                                                 1@LYD 16175000
SMF4EXCP DC    BL4'0'    COUNT OF EXCP'S ISSUED FOR THE DEVICE AND      16212500
*                        DATA SET                                       16250002
         ORG   SMF4DEVC                                                 16300002
SMF4LNTH DC    BL1'0'    TOTAL LENGTH OF CPU AND ACCT. SECTION          16350002
SMF4SETM DC    BL3'0'    RESERVED                                 @LAC  16400000
SMF4NAF  DC    BL1'0'    NUMBER OF ACCOUNTING FIELDS                    16450002
SMF4ACTF DS    0C        EXEC STATEMENT ACCOUNTING FIELDS(VARIABLE)     16500002
*                                                                       16550002
*        EACH ENTRY FOR AN ACCOUNTING FIELD CONTAINS THE LENGTH OF THE  16600002
*        FIELD (1 BYTE,BINARY), FOLLOWED BY THE FIELD(EBCDIC).AN        16650002
*        OMITTED FIELD IS REPRESENTED BY A LENGTH INDICATOR OF 0.       16700002
*                                                                       16750002
*        RELOCATE SECTION                                               16800002
SMF4PGIN DS    BL4'0'    NUMBER OF PAGE-INS                             16850000
SMF4PGOT DS    BL4'0'    NUMBER OF PAGE-OUTS                            16900000
SMF4NSW  DS    BL4'0'    NUM OF SWAPS                            Y02901 16910002
SMF4RGNS EQU   SMF4NSW                                           Y02901 16920002
SMF4PSI  DS    BL4'0'    PAGES SWAPPED IN                        Y02901 16930002
SMF4SIN  EQU   SMF4PSI                                           Y02901 16940002
SMF4PSO  DS    BL4'0'    PAGES SWAPPED OUT                       Y02901 16942002
SMF4SOUT EQU   SMF4PSO                                           Y02901 16944002
SMF4VPI  DS    BL4'0'    VAM PAGE INS                            Y02132 16946002
SMF4VPO  DS    BL4'0'    VAM PAGE OUTS                           Y02132 16948002
*        PERFORMANCE SECTION                                            16948100
SMF4SST  DS    BL4'0'              STEP SERVICE TIME           @YM07459 16948200
SMF4ACT  DS    BL4'0'              STEP ACTIVE TIME            @YM07459 16948300
SMF4PGNO DS    BL2'0'      Step performance group number:          @LZC 16950500
*                          - Valid only if workload management     @LZA 16952700
*                            compatibility mode in effect.         @LZA 16954900
*                          - Zero if workload management goal      @LZA 16957100
*                            mode in effect when the Type 4        @LZA 16959300
*                            record is generated.                  @LZA 16961500
SMF4TRAN DS    BL4'0'      STEP TRANSACTION RESIDENCY TIME     @Z40FPPF 16963700
SMF4CPM  DS    BL4'0'      CREAD PAGE MISS COUNT                   @DFC 16965900
SMF4RCLM DS    BL4'0'      NUMBER OF VIO RECLAIMS              @Z40FPPF 16968100
SMF4CPGN DS    BL4'0'      NUMBER OF COMMON PAGE-INS           @Z40FPPF 16970300
SMF4HSPI DS    BL4'0'      HIPERSPACE PAGE IN COUNT                @LBC 16972500