*        %GOTO IFALRX;   /*                                             00050000
         MACRO                                                          00100000
&NAME    IFASMFRD &RECTYPE                                              00150000
.* *                                                                  * 00200000
.* * MACRO-NAME = IFASMFRD                                            * 00250000
.* *                                                                  * 00300000
.* * MACMEAN IFASMFRD MEANS SYSTEM MANAGEMENT FACILITY RECORD MAPPING * 00350000
.* * MACCOMP Y-2 SC102/BL27P                                          * 00400000
.* * MACSTAT Y-2 73298/42020                                          * 00450000
.* * METHOD OF ACCESS                                                 * 00500000
.* *  PL/S - INCLUDE MACRO FROM LIBRARY                               * 00550000
.* *          EXAMPLE - %INCLUDE SYSLIB(IFASMFRD)                     * 00600000
.* *                                                                  * 00650000
.* *         THIS MACRO EXPANDS RECORDS 124-127                       * 00700000
.* *                                                                  * 00750000
.* *                                                                    00800000
.* THIS IS AN SMF MACRO WHICH BUILDS SMF RECORDS 124-127. THE REQUIRED  00850000
.* FORMAT IS -                                                          00900000
.*                                                                      00950000
.*       IFASMFRD  &RECTYPE                                             01000000
.********************************************************************** 01050000
.E5      ANOP                                                           01100000
         SPACE 3                                                        01150000
         MNOTE 4,'&RECTYPE INVALID RECORD TYPE SPECIFIED'               01200000
.CONTB   ANOP                                                           01250000
         MEXIT                                                          01300000
         MEND      */                                                   01350000
 %IFALRX: ;                                                             01400000
