*   %GOTO IFAL85;                                                       00025000
*                                                                       00050000
*/*                                                                     00075000
         MACRO                                                          00100000
&NAME    IFASMFRA &RECTYPE                                              00150000
.* *                                                                  * 00200000
.* * $MAC(IFASMFRA) COMP(SCURP) PROD(JBB6609):                        * 00225000
.* *                                                                  * 00250000
.* * MACRO-NAME = IFASMFRA                                         @04C 00275000
.* *                                                                  * 00300000
.* * PROPRIETARY STATEMENT =                                          * 00430000
.* *                                                                  * 00460000
.* *  LICENSED MATERIALS - PROPERTY OF IBM                            * 00490000
.* *  "RESTRICTED MATERIALS OF IBM"                                   * 00530000
.* *  5647-A01 (C) COPYRIGHT IBM CORP. 1982, 2000                  @M6C 00570000
.* *                                                                  * 00610000
.* * STATUS = JBB6609                                              @P4C 00631000
.* *                                                                  * 00652000
.* * EXTERNAL CLASSIFICATION: NONE                                      00664000
.* * END OF EXTERNAL CLASSIFICATION:                                    00676000
.* *                                                                  * 00688000
.* *                                                                  * 00700000
.* * METHOD OF ACCESS                                                 * 00750000
.* *  PL/S - INCLUDE MACRO FROM LIBRARY                               * 00800000
.* *          EXAMPLE - %INCLUDE SYSLIB(IFASMFRA)                     * 00850000
.* *                                                                  * 00900000
.* *         THIS MACRO EXPANDS RECORDS 85-103                    @05C* 00950000
.* *                                                                  * 01000000
.* *                                                                    01050000
.* THIS IS AN SMF MACRO WHICH BUILDS SMF RECORDS 85-103. THE REQUIRED   01100000
.* FORMAT IS -                                                          01150000
.*                                                                      01200000
.*       IFASMFRA  &RECTYPE                                             01250000
.*                                                                      01266600
.* CHANGE ACTIVITY:                                                   * 01283200
.*   TYPE 96 RECORD - (ASSEMBLER) INVOKE EWQSMF96 MACRO            @01A 01285800
.*                    (PLS) ISSUE MSG INDICATING NO PLS MAPPING    @01A 01288400
.*   TYPE 90 RECORD - (ASSEMBLER & PLS) CORRECT SMF90PNO COMMENT   @P1A 01291000
.*   TYPE 94 RECORD - INVOKE IECSMF94 MACRO                        @D5A 01293600
.*   TYPE 92 RECORD - INVOKE BPXYSMFR MACRO                        @D6A 01296200
.*   TYPE 90 RECORD - RESERVED SMF90BUF AND SMF90BUM               @P2A 01298800
.*   TYPE 90 RECORD - UPDATE SETDM SECTION                         @P3A 01301400
.*   TYPE 90 RECORD - Include SID Option Source Flags              @LWA 01304000
.*   TYPE 90 RECORD - Change Dataset Fields to CHAR(44)            @LXA 01306600
.*   TYPE 90 RECORD - Invoke IFBSMF90 macro (Subtype 26)           @LZA 01309200
.*   TYPE 90 RECORD - Invoke IWMSMF90 macro (Subtypes 23,24,25,30, @M7C 01310900
.*                                                    32)          @M7A 01312600
.*   TYPE 90 RECORD - Include initial workload management status   @M2A 01314400
.*                    information fields                           @M2A 01317000
.*   TYPE 90 RECORD - Invoke IXCYSM90 macro (Subtypes 27-28)       @L2A 01319600
.*   TYPE 90 RECORD - Invoke CSVDLSMF macro (Subtype 29)           @M5A 01322200
.*   TYPE 90 RECORD - Change SMF90SSM to a reserved field          @L3A 01324800
.*   TYPE 90 RECORD - Remove Subtypes 29-30 (ARM)                  @D3A 01327400
.*   TYPE 88 RECORD - Invoke IXGSMF88 macro (Logger)               @L4A 01330000
.*   TYPE 89 RECORD - New for Usage                                @02A 01332600
.*   TYPE 89 RECORD - Incorrect ASM Dcls for Reserved              @03A 01335200
.*   TYPE 89 RECORD - Correct SMF89LPI assignment                  @04A 01337800
.*   TYPE 90 RECORD - Invoke CSVLPSMF macro (Subtype 31)           @M6A 01339100
.*   Add External Classification                                        01340400
.*   TYPE 85 RECORD - Invoke CBRSMF macro (for OAM record)         @05A 01342300
.*   TYPE 89 RECORD - Add SMF89LPV - LPAR ID valid                 @P4A 01343300
.*   TYPE 97 RECORD - Invoke IWMSMF97 macro (WLM)                  @M8A 01343800
.*   TYPE 89 RECORD - Include STSI-extracted information           @06A 01344000
.*                                                                      01344300
.* CHANGES FOR JBB1226                                         @G383P26 01358600
.*      ADD SUBTYPES 12 AND 14, ADD SUBPARM SEGMENT TO 5,9,12  @G383P26 01372900
.* $L1=RAPRAS,JBB2110,820604,PD27: RESTARTABLE SMF                 @L1A 01387200
.* $D2=DCR81 ,JBB2110,820727,PDFS: SUBTYPE 16 FOR SET DAE CMD      @D2A 01401500
.* $D4=DCR15 ,JBB2133,830912,PDFS: SRM CONSTRAINT RELIEF           @D4A 01415800
.* $D8=DCR3  ,JBB2220,840210,PDFS: SUBTYPE 17 FOR SET PFK CMD      @D8A 01430100
.* $DI=DCR26 ,JBB3313,881216,PDBR: DATA LOST CHANGES               @DIA 01444400
.*                                                                      01458700
.*    =PGP0165 ,JBB3313,890127,PDBR: IFASMFRA MACRO ERROR               01473000
.*    =OPSSI ,JBB3320,870710,PDFS: SUBTYPE 14 FOR SET MPF CMD           01487300
.* $LL=DYNRNLS,HBB4410,891026,PDBR: SUBTYPE 18 FOR SET GRSRNL CMD  @LLA 01501600
.* $LD=APPC  ,HBB4420,890303,PDLO: SUBTYPE 19 AND 20 FOR SET APPC  @LDA 01515900
.*                                 AND SET SCHPRM CMDS             @LDA 01530200
.* $LK=APPC  ,HBB4420,891009,PDBR: SUBTYPE 21 FOR FOR SET SCH CMD  @LKA 01544500
.* $LO=CE2   ,HBB4420,891009,PDBR: SUBTYPE 22 FOR SET CNGRP CMD    @LOA 01558800
.* $LM=BPAGE ,HBB4420,891104,PDBR: SET DMN CMD UPDATES             @LMA 01573100
.* $D1=DKI0004,JBB4422,910220,PDBR: SET MPF CMD UPDATES            @D1A 01587400
.* $01=OY44384,JBB2220,910719,PDBR: TYPE 96 FOR TIRS               @01A 01601700
.* $P1=PKB2276,HBB4430,920506,PDOH: 10X: SMF90PNO COMMENT WRONG    @P1A 01616000
.* $D5=DKB0095,HBB4430,920506,PDBR: TYPE 94 FOR ATL                @D5A 01630300
.* $D6=DKB0128,HBB4430,920624,PDBR: TYPE 92 FOR O/MVS              @D6A 01644600
.* $P2=PKB3617,HBB4430,920805,PDOH: 10X: OBSOLETE OPTION PROCESSING     01653200
.*                                                                 @P2A 01661800
.* $P3=PKB3714,HBB4430,920731,PDMF: 10X: TYPE 90 FORMAT CHANGE     @P3A 01663800
.* $LW=SMFSID ,HBB5510,930304,PDBR: SID Option Enhancements        @LWA 01665800
.* $LX=SMFDSN ,HBB5510,930415,PDBR: DSNAME Option Enhancements     @LXA 01667800
.* $LZ=SMC    ,HBB5510,930415,PDOH: SMF-SMC Support                @LZA 01669800
.* $M1=WLMI   ,HBB5510,930610,PDOH: SMF-WLM Support                @M1A 01671800
.* $M2=WLMI   ,HBB5510,930715,PDOH: SMF-WLM Support Stage 2        @M2A 01673800
.* $L2=ARM    ,HBB5520,931109,PDOH: SMF-ARM Support                @L2A 01675800
.* $L3=CLONE  ,HBB5520,940414,PDOH: SMF-Cloning Support            @L3A 01677800
.* $D3=DN70040,HBB5520,940505,PDOH: SMF-ARM Support                @D3A 01679800
.* $L4=LOGGR  ,HBB5520,940505,PDOH: SMF-Logger Support             @L4A 01681800
.* $02=OW02855,JBB3313,940110,PDBR: Usage Data Reporting           @02A 01683800
.* $03=OW05616,JBB3313,940615,PDBR: Inccorect Dcls for Reserved    @03A 01685800
.* $04=OW07260,JBB3313,940815,PDOH: SMF89LPI incorrectly filled    @04A 01687800
.*    =PN71727,HBB5520,941020,PDOH: CDPI: SHOWHDR Cleanup               01689800
.* $MX=PRDEDSMF,HBB6601,950601,PDXB: Product enable/disable        @MXA 01691800
.* $M3=PRDEDURP,HBB6601,950731,PDE1: Product enable/disable             01693800
.* $M5=DYNLLSMF,JBB6602,941231,PDXB: Dynamic LNKLST                @M5A 01695800
.* $M6=DYLPASMF,JBB6604,961101,PDXB: Dynamic LPA                   @M6A 01696100
.* $M7=WLMPRES,JBB6604,970226,PDCG: SMF-WLM Support Stage 3        @M7A 01696400
.* $05=OW25672,HBB5510,970630,PDRR: OAM Type 85 Enhancement        @05A 01696800
.* $P4=PUX0281,HBB6605,970701,PDRR: Reship correct level of module @P4A 01697100
.*                                  at JBB6604 with OW25672        @P4A 01697400
.* $P4=PUX0139,HBB6605,970630,PDPF: SMF-SMF89LPV - LPAR ID valid   @P4A 01697600
.* $M8=WLMPMES, JBB6609,980812,PDCO: SMF-WLM Multisystem Enclave   @M8A 01697700
.* $06=OW37091,HBB6601,990528,PDOH: CUoD Support                   @06A 01698400
.*                                                                      01699100
.********************************************************************** 01700000
         AIF   (&RECTYPE EQ 85).IFAS085                            @05A 01706200
         AIF   (&RECTYPE EQ 88).IFAS088                            @L4A 01712500
         AIF   (&RECTYPE EQ 89).IFAS089                            @02A 01725000
         AIF   (&RECTYPE EQ 90).IFAS090                        @G502PJW 01750000
         AIF   (&RECTYPE EQ 92).IFAS092                            @D6A 01756200
         AIF   (&RECTYPE EQ 94).IFAS094                            @D5A 01762500
         AIF   (&RECTYPE EQ 96).IFAS096                            @01A 01775000
         AIF   (&RECTYPE EQ 97).IFAS097                            @M8A 01787500
.E5      ANOP                                                           01800000
         SPACE 3                                                        01850000
         MNOTE 4,'&RECTYPE INVALID RECORD TYPE SPECIFIED'               01900000
.CONTB   ANOP                                                           01950000
         MEXIT                                                          02000000
.IFAS085 ANOP                                                      @05A 02000100
* THIS DSECT DEFINES THE FORMAT FOR RECORD TYPE 85 WRITTEN BY OAM  @05A 02000200
*                                                                  @05A 02000300
         EJECT                                                     @05A 02000400
         CBRSMF                                                    @05A 02000500
         AGO  .CONTB                                               @05A 02000600
.IFAS088 ANOP                                                      @L4A 02000700
* THIS DSECT DEFINES THE FORMAT FOR RECORD TYPE 88 WRITTEN         @L4A 02000800
* BY THE LOGGER                                                    @L4A 02000900
*                                                                  @L4A 02001000
         EJECT                                                     @L4A 02001100
         IXGSMF88                                                  @L4A 02001200
         AGO  .CONTB                                               @L4A 02001300
.IFAS089 ANOP                                                      @02A 02001400
         EJECT                                                     @02P 02001500
*                                                                  @02A 02001600
SMFRCD89 DSECT           Type 89 Subtype 1 mapping                 @02A 02001700
*                                                                  @02A 02001800
*      **************************************************************** 02001900
*      *                                                              * 02002100
*      * Header Section                                            @02A 02002400
*      *                                                              * 02002700
*      **************************************************************** 02003000
*                                                                  @02A 02003300
*                                                                  @02A 02003600
SMF89LEN DS    1FL2      Record Length                             @02A 02003900
SMF89SEG DS    1CL0002   Segment descriptor                        @02A 02004200
SMF89FLG DS    1CL0001   System indicator                          @02A 02004500
SMF89RTY DS    1FL1      Record type - 89, x'59'                   @02A 02004800
SMF89TME DS    1CL0004   Time, in hundredths of a second, record   @02A 02005100
*                        was moved to the SMF buffer.              @02A 02005400
SMF89DTE DS    1CL0004   Date that the record was moved to the SMF @02A 02005700
*                        buffer, in the form of 0cyydddF, where F  @02A 02006000
*                        is the sign                               @02A 02006300
SMF89SID DS    1CL0004   System identification (taken from SID     @02A 02006600
*                        parameter)                                @02A 02006900
SMF89WID DS    1CL0004   Subsystem identifier for the SMF address  @02A 02007200
*                        space - 'STC' for Started Task            @02A 02007500
SMF89STP DS    1FL2      Record Subtype                            @02A 02007700
SMF89STPUSAGE EQU 1      SMF 89 measured usage                     @M3A 02007900
SMF89STPPRODREG EQU 2    SMF 89 product registration               @M3A 02008000
         SPACE 1                                                   @M3P 02008100
SMF89SDL DS    1FL4      Length of self-defining section           @02A 02008200
*                                                                  @02A 02008400
*      **************************************************************** 02008700
*      *                                                              * 02009000
*      * Self-Defining Section                                        * 02009300
*      *                                                              * 02009600
*      **************************************************************** 02009900
*                                                                  @02A 02010200
*                                                                  @02A 02010500
SMF89SDS DS    0CL0024   Self-Defining Section                     @02A 02010800
SMF89PRO DS    1FL4      Offset of Record Product Section (from    @02A 02011100
*                        start of record including the RDW         @02A 02011400
SMF89PRL DS    1FL2      Length of each Record Product Section     @02A 02011700
SMF89PRN DS    1FL2      Number of Record Product Sections - '1'   @02A 02012000
SMF89SIO DS    1FL4      Offset of System ID Section (from start   @02A 02012300
*                        of record including the RDW               @02A 02012600
SMF89SIL DS    1FL2      Length of each System ID Section          @02A 02012900
SMF89SIN DS    1FL2      Number of System ID Sections - '1'        @02A 02013200
SMF89UDO DS    1FL4      Offset of First Usage/Product Data        @MXC 02013300
*                        (section from start of record, including  @MXC 02013400
*                        the RDW)                                  @MXC 02013500
SMF89UDL DS    1FL2      Length of each Usage/Product Data section @MXC 02013600
SMF89UDN DS    1FL2      Number of Usage/Product Data sections     @MXC 02013700
*                        (minimum: 0)                              @MXC 02013800
SMF89UDR DS    1FL4      Number of Product Data sections           @MXA 02013900
*                        remaining. 0 for usage data.              @MXA 02014000
*                                                                  @02A 02014700
*      **************************************************************** 02015000
*      *                                                              * 02015300
*      * Product Section                                           @02A 02015600
*      *                                                              * 02015900
*      **************************************************************** 02016200
*                                                                  @02A 02016500
*                                                                  @02A 02016800
SMF89PR  DSECT                                                     @02A 02017100
SMF89PNM DS    1CL0008   Record Product Name - 'SMF'               @02A 02017400
SMF89RVN DS    1FL4      Record Version Number - '01'              @02A 02017700
SMF89OSL DS    1CL0008   MVS System Level (ie. 'SP4.3.0')          @02A 02018000
SMF89IST DS    1FL4      Reporting Interval START Time (in         @02A 02018300
*                        hundredths of a second). 0 for            @02A 02018600
*                        non-Interval records                      @02A 02018900
SMF89ISD DS    1CL0004   Reporting Interval START Date in the form @02A 02019200
*                        of 0cyydddF, where F is the sign. 0 for   @02A 02019500
*                        non-Interval records                      @02A 02019800
SMF89IET DS    1FL4      Reporting Interval END Time (in           @02A 02020100
*                        hundredths of a second). 0 for            @02A 02020400
*                        non-Interval records                      @02A 02020700
SMF89IED DS    1CL0004   Reporting Interval END Date in the form   @02A 02021000
*                        of 0cyydddF, where F is the sign 0 for    @02A 02021300
*                        non-Interval records                      @02A 02021600
*                                                                  @02A 02021900
*      **************************************************************** 02022200
*      *                                                              * 02022500
*      * System ID Section                                         @02A 02022800
*      *                                                              * 02023100
*      **************************************************************** 02023400
*                                                                  @02A 02023700
*                                                                  @02A 02024000
SMF89SI  DSECT                                                     @02A 02024300
SMF89SYN DS    1CL0008   MVS System Name (taken from SYSNAME in    @02A 02024600
*                        IEASYSxx)                                 @02A 02024900
SMF89UST DS    1FL4      Usage Data Interval START Time (in        @02A 02025200
*                        hundredths of a second). 0 for            @02A 02025500
*                        non-Interval records                      @02A 02025800
SMF89USD DS    1CL0004   Usage Data Interval START Date in the     @02A 02026100
*                        form of 0cyydddF, where F is the sign. 0  @02A 02026400
*                        for non-Interval records                  @02A 02026700
SMF89UET DS    1FL4      Usage Data Interval END Time (in          @02A 02027000
*                        hundredths of a second). 0 for            @02A 02027300
*                        non-Interval records                      @02A 02027600
SMF89UED DS    1CL0004   Usage Data Interval END Date in the form  @02A 02027900
*                        of 0cyydddF, where F is the sign 0 for    @02A 02028200
*                        non-Interval records                      @02A 02028500
SMF89CSU DS    1FL4      CPU Service Coefficient in affect at the  @02A 02028800
*                        time that the record was generated.       @02A 02029100
SMF89SRU DS    1FL4      SRB Service Coefficient in affect at the  @02A 02029400
*                        time that the record was generated.       @02A 02029700
SMF89CMN DS    1CL0002   CPU Model Number (Packed)                 @02A 02030000
SMF89CVN DS    1FL1      CPU Version Number                        @02A 02030300
SMF89LPI DS    1CL0001   LPAR Partition ID                         @04C 02030400
SMF89LP1 EQU   X'F0'     1st nibble - flags                        @P4C 02030500
SMF89LPV EQU   X'80'     LPAR ID is valid (allow LPAR ID = 0)      @P4A 02030600
SMF89LP2 EQU   X'0F'     LPAR Partition ID                         @04A 02030700
SMF89SER DS    1CL0003   CPU Serial Number (Packed)                @02A 02030900
         DS    1CL0001   Reserved                                  @03C 02031200
SMF89RPP DS    1FL4      CPU Relative Processing Power Indicator   @02A 02031500
SMF89SPN DS    1CL0008   MVS SYSPLEX Name                          @02A 02031800
SMF89CPT DS    1CL0006   CPC Type Number                           @02A 02032100
SMF89CPM DS    1CL0003   CPC Model Number                          @02A 02032400
SMF89CPS DS    1CL0012   CPC Sequence Number                       @02A 02032700
         DS    1CL0003   Reserved                                  @03C 02033000
SMF89MNF DS    1CL0016   V1-CPC Manufacturer                       @06A 02033100
SMF89TID DS    1CL0004   V1-CPC Type                               @06A 02033200
SMF89MDL DS    1CL0016   V1-CPC Model                              @06A 02033300
SMF89SQC DS    1CL0016   V1-CPC Sequence Code                      @06A 02033400
SMF89POM DS    1CL0004   V1-CPC Plant of Manufacturer              @06A 02033500
SMF89CPC DS    1FL4      CPU Capability                            @06A 02033600
SMF89CCC DS    1FL2      Configured CPU Count                      @06A 02033700
SMF89SCC DS    1FL2      Standby CPU Count                         @06A 02033800
SMF89MAF DS    1CL30     Array of Multiprocessing CPU Capability   @06A 02033900
*                        Adjustment Factors                        @06A 02034000
*                                                                  @02A 02034100
*      **************************************************************** 02034200
*      *                                                              * 02034300
*      * Usage Data Section                                        @02A 02034400
*      *                                                              * 02034500
*      **************************************************************** 02034800
*                                                                  @02A 02035100
*                                                                  @02A 02035400
SMF89UD  DSECT                                                     @02A 02035700
SMF89UPO DS    1CL0016   Product Owner or Vendor Name (obtained    @02A 02036000
*                        PRODOWNER option ofA IFAUSAGE macro)      @02A 02036300
SMF89UPN DS    1CL0016   Product Name (obtained PRODNAME option of @02A 02036600
*                        IFAUSAGE macro)                           @02A 02036900
SMF89UPV DS    1CL0008   Product Version (obtained PRODVERS option @02A 02037200
*                        of IFAUSAGE macro)                        @02A 02037500
SMF89UPQ DS    1CL0008   Product Qualifier (obtained PRODQUAL      @02A 02037800
*                        option of IFAUSAGE macro)                 @02A 02038100
SMF89UPI DS    1CL0008   Product ID (obtained PRODID option of     @02A 02038400
*                        IFAUSAGE macro)                           @02A 02038700
SMF89UCT DS    1CL0008   Product TCB Time (in hundreths of a       @02A 02039000
*                        second - floating point)                  @02A 02039300
SMF89USR DS    1CL0008   Product SRB Time (in hundreths of a       @02A 02039600
*                        second - floating point)                  @02A 02039900
SMF89UFG DS    1CL0001   Usage Entry Flags                         @02A 02040200
SMF89UUN EQU   X'80'     UNAUTHORIZED REGISTER Requested           @02A 02040500
SMF89UNU EQU   X'40'     Ineligible for measured usage             @MXA 02040600
         DS    1CL0002   Reserved                                  @03C 02040800
SMF89URT DS    1FL1      Data Type of value in SMF89URD (as        @02A 02041100
*                        specified by the FORMAT option on the     @02A 02041400
*                        FUNCTIONDATA Request of the IFAUSAGE      @02A 02041700
*                        macro).                                   @02A 02042000
SMF89URD DS    1CL0008   Product 'Specific' Resource Data          @02A 02042300
*                        (specified by the DATA option on the      @02A 02042600
*                        FUNCTIONDATA Request of the IFAUSAGE      @02A 02042900
*                        macro).                                   @02A 02043200
*                                                                       02043500
*      **************************************************************** 02043600
*      *                                                              * 02043700
*      * Product enable/disable section                            @MXA 02043800
*      *                                                              * 02043900
*      **************************************************************** 02044000
*                                                                  @MXA 02044100
*                                                                  @MXA 02044200
SMF89T2  DSECT                                                     @MXA 02044300
SMF89T2PRODOWNER DS 1CL0016 Product Owner or Vendor Name (from     @MXA 02044400
*                        prodowner parameter of IFAEDREG or        @MXA 02044500
*                        OWNER option of PRODUCT statement of      @MXA 02044600
*                        IFAPEDxx)                                 @MXA 02044700
SMF89T2PRODNAME DS 1CL0016 Product name (from prodname             @MXA 02044800
*                        parameter of IFAEDREG or NAME             @MXA 02044900
*                        option of PRODUCT statement of            @MXA 02045000
*                        IFAPEDxx)                                 @MXA 02045100
SMF89T2FEATURENAME DS 1CL0016 Feature name (from featurename       @MXA 02045200
*                        parameter of IFAEDREG or FEATURENAME      @MXA 02045300
*                        option of PRODUCT statement of            @MXA 02045400
*                        IFAPEDxx)                                 @MXA 02045500
SMF89T2PRODVERS DS 1CL002 Product version (from prodvers           @MXA 02045600
*                        parameter of IFAEDREG or VERSION          @MXA 02045700
*                        option of PRODUCT statement of            @MXA 02045800
*                        IFAPEDxx)                                 @MXA 02045900
SMF89T2PRODREL  DS 1CL002 Product release (from prodrel            @MXA 02046000
*                        parameter of IFAEDREG or RELEASE          @MXA 02046100
*                        option of PRODUCT statement of            @MXA 02046200
*                        IFAPEDxx)                                 @MXA 02046300
SMF89T2PRODMOD  DS 1CL002 Product mod level (from prodmod          @MXA 02046400
*                        parameter of IFAEDREG or MOD              @MXA 02046500
*                        option of PRODUCT statement of            @MXA 02046600
*                        IFAPEDxx)                                 @MXA 02046700
SMF89T2PRODID DS 1CL008  Product ID (from prodID                   @MXA 02046800
*                        parameter of IFAEDREG or ID               @MXA 02046900
*                        option of PRODUCT statement of            @MXA 02047000
*                        IFAPEDxx)                                 @MXA 02047100
SMF89T2FLAGS DS 1CL0001  Flags                                     @MXA 02047200
SMF89T2NOTDEFINED EQU X'80' Product state is Not Defined           @MXA 02047300
SMF89T2ENABLED EQU X'40' Product state is Enabled                  @MXA 02047400
SMF89T2REGENTRY EQU X'08' Register entry                           @MXA 02047500
SMF89T2STATEENTRY EQU X'04' State entry                            @MXA 02047600
SMF89T2NOREPORT EQU X'02' "No Report" - registered with            @MXA 02047700
*                           IFAEDREG_TYPE_NOREPORT                 @MXA 02047800
SMF89T2LICENSEDUNDERPROD EQU X'01'  "Licensed Under Prod" -        @MXA 02047900
*                           registered with                        @MXA 02048000
*                           IFAEDREG_TYPE_LICENSEDUNDERPROD        @MXA 02048100
*                                                                       02048200
         DS    1CL0001   Unused                                    @MXA 02048300
SMF89T2NUMINSTANCES DS   F       Maximum number of instances of    @MXA 02048400
*                                registrations of this product     @MXA 02048500
         AGO  .CONTB                                               @02P 02048600
.IFAS090 ANOP                                                  @G50FPJW 02050000
         EJECT                                                 @G50FPJW 02100000
*        THIS RECORD IS WRITTEN WHEN EVER AN OPERATOR COMMAND OR        02150000
*        RESPONSE OF THE FOLLOWING TYPE IS RECEIVED:               @D2C 02200000
*            1  SET TIME                                                02233300
*            2  SET DATE                                                02266600
*            3  SET DMN                                                 02299900
*            4  SET IPS                                                 02333200
*            5  SET SMF                                                 02366500
*            6  SWITCH SMF                                              02399800
*            7  HALT EOD                                                02433100
*            8  IPL PROMPT (RESPONSE)                                   02466400
*            9  IPL SMF (RESPONSE)                                      02499700