*        %GOTO IFAL37;   /*                                       @T5C  00020000
         MACRO                                                          00040000
&NAME    IFASMFR4 &RECTYPE                                              00060000
.* *                                                                  * 00080000
.* * MACRO-NAME = IFASMFR4                                        @LYC* 00100000
.* *                                                                  * 00103700
.* * PROPRIETARY STATEMENT =                                          * 00107400
.* *  LICENSED MATERIALS - PROPERTY OF IBM                            * 00111100
.* *  THIS MACRO IS "RESTRICTED MATERIALS OF IBM"                     * 00114800
.* *  5655-068 (C) COPYRIGHT IBM CORP. 1979, 1993                 @LYC* 00118500
.* *  SEE COPYRIGHT INSTRUCTIONS                                      * 00122200
.* *                                                                  * 00125900
.* * STATUS = OS/VS2 HBB5510                                      @LYC* 00129600
.* *                                                                  * 00133300
.* * MACMEAN IFASMFR4 MEANS SYSTEM MANAGEMENT FACILITY RECORD MAPPING * 00137000
.* * MACCOMP Y-2 SC100/BL27P                                          * 00140700
.* * MACSTAT Y-2 73298/42020                                          * 00144400
.* *                                                                  * 00148100
.* * METHOD OF ACCESS                                                 * 00151800
.* *   PL/S - INCLUDE MACRO FROM LIBRARY                              * 00155500
.* *           EXAMPLE - %INCLUDE SYSLIB(IFASMFR4)                    * 00159200
.* *                                                                  * 00162900
.* *          THIS MACRO EXPANDS RECORDS 37 - 46.                     * 00166600
.* *                                                                  * 00167300
.* *                                                                  * 00168000
.* *  TYPE 40 - Delete SMF40VDV                                   @LYA  00168700
.* *                                                                  * 00169400
.* *                                                                  * 00170300
.* * CHANGE ACTIVITY:                                                 * 00174000
.* *                                                                  * 00177700
.* * $T3=UZ90287 ,JBB2110,830901,PDFS:  ADD RECORD TYPE 39        @T3A* 00181400
.* * $T7=UZ90334 ,JBB2125,840523,PDFS:  XFER REC 43,45 TO SC141   @T7A* 00185100
.* * $T5=UZ90344 ,JBB2125,840912,PDFS:  ADD RECORD TYPE 37        @T5A* 00188800
.* * $D9=DCR93   ,JBB2220,850401,PDFS:  ADD RECORD TYPE 41        @D9A* 00192500
.* * $P1=PGP0543 ,JBB3313,890816,PDBR:  ADD RECORD TYPE 42        @P1A* 00196200
.* * $01=OY39863 ,HBB4420,910130,PDM1:  ADD SEQ FIELDS TO TYPE 40 @01A* 00200000
.* * $LY=4DGIT   ,HBB5510,930304,PDSL:  SMF 4K UCB enhancement    @LYA  00200700
.* *                                                                  * 00201500
.*                                                                    * 00203000
.* THIS IS AN SMF MACRO WHICH BUILDS SMF RECORDS 37 - 46. THE REQUIRED  00204500
.* FORMAT IS -                                                          00206000
.*                                                                      00207500
.*        IFASMFR4  &RECTYPE                                            00209000
.*                                                                      00210500
.********************************************************************** 00212000
         AIF   (&RECTYPE EQ 37).IFAS037                           @T5A  00213500
         AIF   (&RECTYPE EQ 39).IFAS039                           @T3A  00215000
         AIF   (&RECTYPE EQ 40).IFAS040                                 00216500
         AIF   (&RECTYPE EQ 41).IFAS041                           @D9A  00218000
         AIF   (&RECTYPE EQ 42).IFAS042                           @P1A  00219500
         AIF   (&RECTYPE EQ 43).IFAS043                         Y02120  00221000
         AIF   (&RECTYPE EQ 44).IFAS044                       @Z40EPPF  00222500
         AIF   (&RECTYPE EQ 45).IFAS045                         Y02120  00224000
.E5      ANOP                                                           00225500
         SPACE 3                                                        00227000
         MNOTE 4,'&RECTYPE INVALID RECORD TYPE SPECIFIED'               00228500
.CONTB   ANOP                                                           00230000
         MEXIT                                                          00231500
.IFAS037 ANOP                                                     @T5A  00233000
         EJECT                                                    @T5A  00234500
* THIS DSECT DEFINES THE FORMAT FOR RECORD TYPE 37 WRITTEN        @T5A  00236000
* BY NETWORK PROBLEM DETERMINATION APPLICATION (NPDA)             @T5A  00237500
         BNJTBRF                                                  @T5A  00239000
         AGO   .CONTB                                             @T5A  00240500
.IFAS039 ANOP                                                     @T3A  00242000
         EJECT                                                    @T3A  00243500
* THIS DSECT DEFINES THE FORMAT FOR RECORD TYPE 39 WRITTEN        @T3A  00245000
* BY NETWORK LOGICAL DATA MANAGER (NLDM)                          @T3A  00246500
         AAUTLOGR                                                 @T3A  00248000
         AGO   .CONTB                                             @T3A  00249500
.IFAS040 ANOP                                                           00251000
         EJECT                                                          00252500
* WRITTEN BY DYNAMIC DEVICE ALLOCATION WHEN PROCESSING DEALLOCATION,    00254000
* CONCATENATION AND DECONCATENATION. LENGTH IS VARIABLE.                00255500
* MINIMUM OF 70 BYTES.                                                  00257000
         DS    0F        ALIGN TO FULL WORD BOUNDARY                    00258500
TDDSMF   EQU   *                   SMF DYNAMIC DD RECORD FORMAT         00260000
TDDRLEN  DS    BL2'0'    RECORD LENGTH                                  00261500
TDDRSEG  DS    BL2'0'    SEGMENT DESCRIPTOR                             00263000
TDDRFLG  DC    BL1'0'              HEADER FLAG BYTE                     00264500
TDDRCDTY DC    BL1'0'              RECORD TYPE (40 DECIMAL)             00266000
TDDRCDTS DC    BL4'0'              TIME STAMP  TOD 100THS SECS          00267500
TDDRCDTE DC    PL4'0000'                       DATE 00YYDDDF            00269000
TDDCPUID DC    CL4' '              CPU IDENTIFICATION (SYSTEM, MODEL)   00270500
TDDUIF   DC    CL8' '              USER IDENTIFICATION FIELD            00272000
TDDUID   EQU   TDDUIF                                                   00273500
TDDONTME DC    BL4'0'              LOGON TIME  TOD  100THS SECS         00275000
TDDONDTE DC    PL4'0000'                       DATE 00YYDDDF            00276500
TDDUDATA DC    CL8' '              RESV FOR USER                        00278000
TDDINVSQ DC    BL1'0'              STEP SEQUENCE NUMBER                 00279500
TDDFLG   DC    BL1'0'    INDICATION OF FUNCTION THAT CAUSED THIS        00281000
*                        DYNAMIC RECORD                                 00282500
*                           VALUE     RECORD CAUSED BY                  00284000
*                           '01'      RESERVED                          00285500
*                           '02'      UNALLOCATION                      00287000
*                           '03'      CONCATENATION                     00288500
*                           '04'      DECONCATENATION                   00290000
TDDRIN   DC    BL2'0'              RECORD INDICATORS           @YM02618 00291500
*                                  BITS 0-6 RESERVED           @YM02618 00293000
*                                  7 POSSIBLE ERROR IN DEV ENTRY DATA   00294500
*                                  8-15 RESERVED               @YM02618 00296000
TDDRCIND DC    H'0'                INDEX OF RECORD IN SEQUENCE OF  @01A 00300000
*                                  RECORDS.                        @01A 00350000
*                                  NOTE: IN EARLIER RELEASES THIS  @01A 00400000
*                                  FIELD WILL BE ZERO.             @01A 00450000
TDDRCTOT DC    H'0'                TOTAL NUMBER OF RECORDS IN      @01A 00550000
*                                  SEQUENCE OF RECORDS.            @01A 00600000
*                                  NOTE: IN EARLIER RELEASES THIS  @01A 00650000
*                                  FIELD WILL BE ZERO.             @01A 00700000
TDDRVA   DC    BL14'0'             RESERVED                        @01C 00750000
TDDVAR   DC    BL2'0'              LENGTH OF REST OF RECORD             00751000
*                                  (INCLUDING THESE TWO BYTES)          00752000
TDDEXCP  EQU   *                   Dataset Access Information      @LYC 00752600
*                                                                  @LYA 00753200
*     Note: Virtual I/O Devices are identified by the following:   @LYA 00753800
*           Device Class 0                                         @LYA 00754400
*           Unit Type 0                                            @LYA 00755000
*           Device Number x'7FFF'                                  @LYA 00755600
*                                                                  @LYA 00756200
TDDDEVC  DC    BL1'0'              DEVICE CLASS                         00757000
TDDUTYP  DC    BL1'0'              UNIT TYPE                            00758000
TDDCUAD  DC    BL2'0'              DEVICE NUMBER               @G860P27 00759000
*                                                                 1@LYD 00760000
TDDNEXCP DC    4BL1'0'             EXCP COUNT                           00761000
         ORG   TDDDEVC                                                  00762000
         AGO   .CONTB                                                   00763000
.IFAS041 ANOP                                                      @D9A 00764000
         EJECT                                                     @D9A 00765000
.* THIS DSECT DEFINES THE FORMAT FOR RECORD TYPE 41 WRITTEN        @D9A 00766000
.* BY DATA-IN-VIRTUAL (DIV)                                        @D9A 00767000
         ITVSMF41                                                  @D9A 00768000
         AGO   .CONTB                                              @D9A 00769000
.IFAS042 ANOP                                                      @P1A 00770000
         EJECT                                                     @P1A 00771000
.* THIS DSECT DEFINES THE FORMAT FOR RECORD TYPE 42 WRITTEN        @P1A 00772000
.* BY DFP INSTRUMENTATION                                          @P1A 00773000
         IGWSMF                                                    @P1A 00774000
         AGO   .CONTB                                              @P1A 00775000
.IFAS043 ANOP                                                    Y02120 00776000
.* 64 LINES DELETED(MAP OF REC 43)TO TRANSFER OWNERSHIP TO SC141 64@T7D 00777000
         EJECT                                                   Y02120 00778000
         IAZSMFR 43     CALL SC141 TO EXPAND REC 43                @T7A 00779000
         AGO   .CONTB                                            Y02120 00780000
.IFAS044 ANOP                                                  @Z40EPPF 00781000
         EJECT                                                 @Z40EPPF 00782000
* SUBSYSTEM MODIFY RECORD TYPE 44                              @Z40EPPF 00783000
         DS    0F       ALIGNMENT TO FULL WORD BOUNDARY        @Z40EPPF 00784000
SMF44HDR EQU   *        HEADER SEGMENT                         @Z40EPPF 00785000
SMF44LEN DS    BL2      RECORD LENGTH                          @Z40EPPF 00786000
SMF44SEG DS    BL2      SEGMENT DESCRIPTION                    @Z40EPPF 00787000
SMF44FLG DS    BL1      HEADER FLAG BYTE                       @Z40EPPF 00788000
SMF44RTY DS    BL1      RECORD TYPE 44                         @Z40EPPF 00789000
SMF44TME DS    BL4      TOD FROM TIME MACRO BINARY             @Z40EPPF 00790000
SMF44DTE DC    PL4'0000' DATE                                  @Z40EPPF 00791000
SMF44SID DC    CL4' '   SYSTEM ID                              @Z40EPPF 00792000
* END OF SEGMENT COMMON TO ALL RECORDS                         @Z40EPPF 00793000
* SUBSYSTEM IDENTIFICATION SECTION                             @Z40EPPF 00794000
SMF44SBS DS    BL2      SUBSYSTEM IDENTIFIER                   @Z40EPPF 00795000
*                       X'0006' SS06                           @Z40EPPF 00796000
SMF44RSV DS    BL2      RESV                                   @Z40EPPF 00797000
SMF44LRR DS    BL2      LENGTH REST OF RECORD                  @Z40EPPF 00798000
* END OF SECTION COMMON TO ALL SUBSYSTEMS                      @Z40EPPF 00799000
SMF44SBG EQU   *        SUBSYSTEM SECTION BEGINNING            @Z40EPPF 00800000
* SS06 SECTION                                                 @Z40EPPF 00801000
SMF44PRC DC    CL8' '   SS06 PROC NAME                         @Z40EPPF 00802000
SMF44OPT DC    CL73' '  INITIALIZATION OPTIONS                 @Z40EPPF 00803000
         ORG   SMF44SBG                                        @Z40EPPF 00804000
         AGO   .CONTB                                          @Z40EPPF 00805000
.IFAS045 ANOP                                                    Y02120 00806000
.* 47 LINES DELETED(MAP OF REC 45)TO TRANSFER OWNERSHIP TO SC141 47@T7D 00807000
         EJECT                                                   Y02120 00808000
         IAZSMFR 45    CALL SC141 TO EXPAND REC 45                 @T7A 00809000
         AGO   .CONTB                                            Y02120 00810000
         MEND           */                                              00811000
 %IFAL37: INCLIAZ='';             /* INIT SWITCH FOR IAZ MACROS  @T5C*/ 00812000
 %IF IFAR37='' %THEN %GOTO IFAL39;           /* TYPE 37          @T5A*/ 00813000
 %INCLUDE SYSLIB(BNJTBRF) NOSEG;             /* NPDA RECORD      @T5A*/ 00814000
 %IFAL39: IF IFAR39='' %THEN %GOTO IFAL40;   /* TYPE 39          @T5C*/ 00815000
 %INCLUDE SYSLIB(AAUTLOGR) NOSEG;            /* NLDM RECORD      @T3A*/ 00816000
 %IFAL40: IF IFAR40='' %THEN %GOTO IFAL41;                              00817000
    DCL 1 SMFRCD40 BASED(SMF40PTR) BDY(WORD),                           00818000
 /* RECORD TYPE 40 - DYNAMIC ALLOCATION                              */ 00819000
 /* WRITTEN WHEN DYNAMIC ALLOC PROCESSES A DE-ALLOCATION, CONCAT-    */ 00820000
 /* ENATION, OR DE-CONCATENATION OF A DATA SET.                      */ 00821000
         3 TDDRLEN FIXED(15),     /* RDW RECORD LENGTH               */ 00822000
         3 TDDRSEG FIXED(15),     /* RDW SEGMENT DESCRIPTOR          */ 00823000
         3 TDDRFLG BIT(8),        /* OPERATING ENVIRONMENT           */ 00824000
         3 TDDRCDTY FIXED(8),     /* RECORD TYPE 40                  */ 00825000
         3 TDDRCDTS FIXED(31) BDY(BYTE), /*TOD RCD WRITTEN(.01 SEC)  */ 00826000
         3 TDDRCDTE CHAR(4),      /* DATE RECORD WRITTEN             */ 00827000
         3 TDDCPUID CHAR(4),      /* SYSTEM ID FROM INSTALLATION     */ 00828000
         3 TDDUIF CHAR(8),        /* USER IDENTIFICATION FIELD       */ 00829000
          5 TDDUID CHAR(8),                                             00830000
         3 TDDONTME FIXED(31) BDY(BYTE), /* TOD OF LOGON             */ 00831000
         3 TDDONDTE CHAR(4),      /* DATE OF LOGON                   */ 00832000
         3 TDDUDATA CHAR(8),      /* RESV FOR USER                   */ 00833000
         3 TDDINVSQ FIXED(8),     /* STEP SEQUENCE #                 */ 00834000
         3 TDDFLG FIXED(8),       /* ID OF FUNCTION CAUSING RECORD      00835000
                                     X'01' RESV                         00836000
                                     X'02' UNALLOCATION                 00837000
                                     X'03' CONCATENATION                00838000
                                     X'04' DECONCATENATION           */ 00839000
         3 TDDRIN BIT(16),        /* RECORD INDICATORS       @YM02618*/ 00840000
          5 * BIT(7),             /* RESERVED                @YM02618*/ 00841000
          5 TDDIEX BIT(1),        /* POSSIBLE ERROR IN DEV ENTRY     */ 00842000
          5 * BIT(8),             /* RESERVED                @YM02618*/ 00843000
         3 TDDRCIND FIXED(15),    /* INDEX OF RECORD IN SEQUENCE OF     00850000
                                     RECORDS.                           00900000
                                     NOTE: IN EARLIER RELEASES THIS     00950000
                                     FIELD WILL BE ZERO.         @01A*/ 01000000
         3 TDDRCTOT FIXED(15),    /* TOTAL NUMBER OF RECORDS IN         01100000
                                     SEQUENCE OF RECORDS.               01150000
                                     NOTE: IN EARLIER RELEASES THIS     01200000
                                     FIELD WILL BE ZERO.         @01A*/ 01250000
         3 TDDRVA CHAR(14),       /* RESV                        @01C*/ 01300000
         3 TDDVAR FIXED(15);      /* LGTH OF DEVICE SECTION + THESE 2*/ 01350000
    DCL 1 TDDEXCP BASED  BDY(HWORD), /*Dataset Access Information       01366600
                                                                 @LYC*/ 01383200
 /*                                                                  */ 01399800
 /* Note: Virtual I/O Devices are identified by the following:   @LYA*/ 01416400
 /*       Device Class 0                                         @LYA*/ 01433000
 /*       Unit Type 0                                            @LYA*/ 01449600
 /*       Device Number x'7FFF'                                  @LYA*/ 01466200
 /*                                                                  */ 01482800
         3 TDDCUT CHAR(2),        /* DEVICE CLASS AND UNIT TYPE      */ 01500000
          5 TDDDEVC CHAR(1),      /* DEVICE CLASS                    */ 01550000
          5 TDDUTYP CHAR(1),      /* UNIT TYPE                       */ 01600000
         3 TDDCUAD CHAR(2),       /* DEVICE NUMBER           @G860P27*/ 01650000
                                  /*                            1@LYD*/ 01700000
         3 TDDNEXCP FIXED(31) BDY(BYTE); /* EXCP COUNT               */ 01750000
 %IFAL41: IF IFAR41='' %THEN %GOTO IFAL42; /* TYPE 41 RECORD     @P1C*/ 01800000
 %INCLUDE SYSLIB(ITVSMF41) NOSEG;   /*  DIV RECORD               @D9A*/ 01850000
 %IFAL42: IF IFAR42='' %THEN %GOTO IFAL43; /* TYPE 42 RECORD     @P1A*/ 01900000
 %INCLUDE SYSLIB(IGWSMF) NOSEG;     /*  DFP INSTRUMENTATION REC  @P1A*/ 01950000
 %IFAL43: IF IFAR43='' %THEN %GOTO IFAL44;                              02000000
 /* 64 LINES DELETED(REC 43 MAP)TO TRANSFER OWNERSHIP TO SC141 64@T7D*/ 02050000
 %IAZR43='YES';                                       /*         @T7A*/ 02100000
 %INCLIAZ='YES'; /* AN IAZ MACRO IS REQUESTED-SET FLAG SO IFASMFR       02150000
                    WILL INCLUDE THE JES IAZSMFR MACRO           @T7A*/ 02200000
 %IFAL44: IF IFAR44='' % THEN % GOTO IFAL45;                            02250000
    DCL 1 SMFRCD44 BASED(SMF44PTR) BDY(WORD),    /*          @Z40EPPF*/ 02300000
 /*  RECORD TYPE 44 - SUBSYSTEM MODIFY                       @Z40EPPF*/ 02350000
         3 SMF44LEN FIXED(15),     /* RDW RECORD LENGTH      @Z40EPPF*/ 02400000
         3 SMF44SEG FIXED(15),     /* RDW SEGMENT DESCRIPTOR @Z40EPPF*/ 02450000
         3 SMF44FLG BIT(8),        /* OPERATING ENVIRONMENT  @Z40EPPF*/ 02500000
         3 SMF44RTY FIXED(8),      /* RECORD TYPE 44         @Z40EPPF*/ 02550000
         3 SMF44TME FIXED(31) BDY(BYTE), /*TOD RECORD WRITTEN@Z40EPPF*/ 02600000
         3 SMF44DTE CHAR(4),       /* DATE RECORD WRITTEN    @Z40EPPF*/ 02650000
         3 SMF44SID CHAR(4),       /* SYSTEM ID FROM                    02700000
                                      INSTALLATION           @Z40EPPF*/ 02750000
                                   /* SUBSYSTEM IDENTIFIER SECTION   */ 02800000
         3 SMF44SBS FIXED(15),     /* SUBSYSTEM IDENTIFIER   @Z40EPPF*/ 02850000
                                   /* 6 SS06                 @Z40EPPF*/ 02900000
         3 SMF44RSV CHAR(2),       /* RESV                   @Z40EPPF*/ 02950000
         3 SMF44LRR PTR(15),       /*LENGTH REMAINDER RECORD @Z40EPPF*/ 03000000
 /* SS06 SECTION                                             @Z40EPPF*/ 03050000
         3 SMF44PRC CHAR(8),       /* SS06 PROC NAME         @Z40EPPF*/ 03100000
         3 SMF44OPT CHAR(73);      /* INITIALIZATION OPTIONS @Z40EPPF*/ 03150000
 %IFAL45: IF IFAR45='' %THEN %GOTO IFAL46;                  /*   @T7C*/ 03200000
 /* 49 LINES DELTED(REC 45 MAP)TO TRANSFER OWNERSHIP TO SC141  49@T7D*/ 03250000
 %IAZR45='YES';                                            /*    @T7A*/ 03300000
 %INCLIAZ='YES'; /* AN IAZ MACRO IS REQUESTED-SET FLAG SO IFASMFR       03350000
                    WILL INCLUDE THE JES IAZSMFR MACRO           @T7A*/ 03400000
 %IFAL46: ;                                                             03450000
