*        %GOTO IFAL80;   /*                                             00050000
         MACRO                                                          00100000
&NAME    IFASMFR9 &RECTYPE                                              00150000
.* *                                                                  * 00200000
.* * $MAC(IFASMFR9) COMP(SC1BN) PROD(RACF):                           * 00250000
.* *                                                                  * 00300000
.**01* PROPRIETARY STATEMENT=                                         * 00329500
.* **PROPRIETARY_STATEMENT********************************************* 00359000
.*                                                                    * 00388500
.*                                                                    * 00418000
.*  LICENSED MATERIALS - PROPERTY OF IBM                              * 00447500
.*  THIS MACRO IS "RESTRICTED MATERIALS OF IBM"                       * 00477000
.*  5647-A01 (C) COPYRIGHT IBM CORP. 1980, 1999                       * 00506500
.*                                                                    * 00536000
.*  STATUS= HBB6608                                                   * 00565500
.*                                                                    * 00595000
.* **END_OF_PROPRIETARY_STATEMENT************************************** 00625000
.* *                                                                  * 00631200
.* *01* EXTERNAL CLASSIFICATION: GUPI                                 * 00637400
.* *01* END OF EXTERNAL CLASSIFICATION:                               * 00643600
.* *                                                                  * 00650000
.* *                                                                  * 00675000
.* * MACMEAN IFASMFR9 MEANS SYSTEM MANAGEMENT FACILITY RECORD MAPPING * 00700000
.* * MACCOMP Y-2 SC1BN/BL27P                                          * 00750000
.* * MACSTAT Y-2 73298/42020                                          * 00800000
.* * METHOD OF ACCESS                                                 * 00850000
.* *  PL/S - INCLUDE MACRO FROM LIBRARY                               * 00900000
.* *          EXAMPLE - %INCLUDE SYSLIB(IFASMFR9)                     * 00950000
.* *                                                                  * 01000000
.* *         THIS MACRO EXPANDS RECORDS 80-81 AND                 @M5C* 01033300
.* *              RECORD 83 SUBTYPE 1                             @M5C* 01066600
.* *                                                                  * 01100000
.* *                                                                  * 01125000
.* * CHANGE ACTIVITY =                                                * 01150000
.* *        $L4=HRF1402,RACF/140,810701,SJRDSD:                   @L4A* 01200000
.* *        $L5=HRF1502,RACF/150,820302,CNTDSD:                   @L5A* 01250000
.* *        OZ73241                                           @ZA73241* 01300000
.* *        $L6=HRF1602,RACF/160,830914,CNTDSD:                   @L6A* 01350000
.* *        UZ90283                                           @UZ90283* 01400000
.* *        UZ90284                                           @UZ90284* 01450000
.* *        UZ90285                                           @UZ90285* 01500000
.* *        $L7=HRF1702,RACF/170,840912,CNTDSD:                   @L7A* 01550000
.* *        $L8=HRF1802,RACF/180,861118,CNTDSD:                   @L8A* 01552900
.* *        $M1=JRF1812,RACF/181,870918,CNTDSD: EGN - PFG0054     @M1A* 01555800
.* *        $M2=HRF1822,RACF/182,880108,JCD1  :                   @M2A* 01558700
.* *        $M3=SP313   RACF/190 880615 PDGTM1: MVS/SP 3.1.3      @M3A* 01561600
.* *        $M4=SP313   RACF/190 880615 PDMJN1: MVS/SP 3.1.3      @M4A* 01564500
.* *        $M5=SP313   RACF/190 880914 PDMJN1: MVS/SP 3.1.3      @M5A* 01567400
.* *        OY15525 CODE FOR THIS APAR ADDED BY $L8           @YA15525* 01570300
.* *        $D1=DGU0050 RACF/190 881102 PDGTM1: DCRR # DGU0050    @D1A* 01572700
.* *        $D2=DGU0061 RACF/190 890201 PDGTM1: DCRR # DGU0061    @D2A* 01575100
.* *        $D3=DGU0062 RACF/190 890201 PDGTM1: DCRR # DGU0062    @D3A* 01577500
.* *        $D4=DGU0068 RACF/190 890201 PDGTM1: DCRR # DGU0068    @D4A* 01579900
.* *        $P1=PGW0039 RACF/190 890201 PDMJN1: PTM  # PGW0039    @P1A* 01582300
.* *        $P2=PGU0423 RACF/190 890201 PDMJN1: PTM  # PGU0423    @P2A* 01584700
.* *        $D5=DGU0067 RACF/190 890201 PDMJN1: DCRR # DGU0067    @D5A* 01587100
.* *        $D6=DGU0055 RACF/190 890307 PDMJN1: DCRR # DGU0055    @D6A* 01589500
.* *        $P3=PGW0070 RACF/190 890412 PDMGTM: PTM  # PGW0070    @P3A* 01591900
.* *        $D7=DGU0099 RACF/190 890614 PDGTM1: DCRR # DGU0099    @D7A* 01594300
.* *        $M6=SPE410  RACF/190 900604 PDGLK1: PEO4411           @M6A* 01597100
.* *        $01=OY36214 RACF/190 901020 PDMJN1: APAR OY36214      @01A* 01598500
.* *        $M7=APPC    RACF/192 910419 PDCCM1: SETR APPLAUDIT    @M7A* 01599000
.* *        $P4=PJA0029 RACF/192 910524 PDPSB1: PJA0029           @P4A* 01599500
.* *        $M8=OMVS HBB4430 911225 PDDAM1: OPEN MVS SUPPORT      @M8A* 01599700
.* *        $P5=PKB0683 HBB4430 910131 PDDAM: PTM PKB0683         @P5A* 01599800
.* *        $M9=OMVS HBB4430 920325 PDDAM1: OPEN MVS SUPPORT      @M9A* 01599900
.* *        $P6=PIG2586 HBB5510 930825 PDSMB1: OMVS NFS SUPPORT   @P6A* 01602700
.* *        $D8=OW03465 RACF/210 940305 KDRB:   OW03465           @D8A* 01604100
.* *        $MA=XPG4SAF  HBB5520 940621 PDBRW1: XPG4 SUPPORT      @MAA* 01604500
.* *        $MB=UUSAF    JBB5522 941003 PDAPD1: UU SUPPORT        @MBA* 01604900
.* *        $MB=UUSAF    JBB5522 941003 PDAPD1: UU SUPPORT        @MBA* 01605200
.* *        $P7=PSD0802  JBB6602 950202 PDEMD1: NEW EVENT CODE    @P7A* 01605300
.* *        $MC=CMDEXIT  HBB6603 960527 PDBCC1: COMMAND EXIT      @MCA* 01605400
.* *        $MD=CREATOR  HBB6603 960527 PDRNH1: NOADDCREATOR BIT  @MDA* 01606400
.* *        $ME=BOSSTA   HBB6605 970529 PDR_B1: BOSS SUPPORT      @MEA* 01606900
.* *        $P8=PMK0615  HBB6608 990108 PDALF1: PTM PWP0149       @P8A* 01607100
.* *                                                                  * 01607400
.* *                                                                  * 01608500
.* *                                                                  * 01617000
.* * CHANGE DESCRIPTIONS:                                             * 01625500
.* *      A000000-999999 ORIGINAL CODE                            @L4A* 01634000
.* *      A - SETROPTS B1 OPTIONS IN EFFECT FOR THIS IPL          @M3A* 01642500
.* *      A - B1 SUPPORT - NEW AUDITING                           @M4A* 01651000
.* *      A - B1 SUPPORT - MAPPING OF SMF TYPE 83 SUBTYPE 1       @M5A* 01659500
.* *      A - MVS B1 SECURITY SUPPORT - DCRR # 50                     * 01668000
.* *          (GLOBAL AUDITING ENHANCEMENTS - LOGOPTIONS)         @D1A* 01676500
.* *      A - MVS B1 SECURITY SUPPORT - DCRR # 61                     * 01685000
.* *          (JES SYSOUT NAME - JES(SYSOUTNAME(USERID), AND          * 01693500
.* *           JES UNDEFINED USER - JES(UNDEFINEDUSER(USERID))    @D2A* 01702000
.* *      A - MVS B1 SECURITY SUPPORT - DCRR # 62                     * 01710500
.* *          (COMPATIBILITY MODE - COMPATMODE)                   @D3A* 01719000
.* *      C - MVS B1 SECURITY SUPPORT - DCRR # 68                     * 01727500
.* *          CODE TO ALLOW WARNING AND FAILURE MODE FOR              * 01736000
.* *          CATDSNS, MLS, AND MLACTIVE                          @D4A* 01744500
.* *      A - B1 SUPPORT - PGW0039 - CORRECT MEND STATEMENT       @P1A* 01753000
.* *      A - VTAMSLS    - PGU0423 - ADD EVENT CODE FOR APPCLU    @P2A* 01761500
.* *      A - B1 SUPPORT - DCR # 67- NEW AUTHORITY CODE           @D5A* 01770000
.* *      A - B1 SUPPORT - DCR # 55 - CHANGES TO ASSEMBLY VERSION @D6A* 01778500
.* *              OF SMF TYPE 83 SUBTYPE 1 MAPPING                @D6A* 01787000
.* *      C - CHANGED THE BOUNDARIES FOR RECORD TYPE 81,              * 01795500
.* *          FOR BINARY FIELDS LARGER THAN 1 BYTE, TO                * 01804000
.* *          BYTE BOUNDARIES. ALSO, CORRECTED THE DATA               * 01812500
.* *          TYPES FOR OTHER FIELDS.                             @P3A* 01821000
.* *      C - MVS B1 SECURITY SUPPORT - DCRR # 0099                   * 01822700
.* *          CHANGE                                                  * 01824400
.* *          (JES SYSOUT NAME - JES(SYSOUTNAME(USERID), TO           * 01826100
.* *           JES NJE USER-ID - JES(NJEUSERID(USERID))           @D7A* 01827800
.* *      A - MVS MESSAGE SERVICE SUPPORT FOR NATIONAL LANGUAGES  @M6A* 01828600
.* *      A - ADDED TRUSTED AUTHORITY TO SMF 80 AND 83 RECORDS    @01A* 01829000
.* *      A - ADD COMMENTS TO SMF81BOX AND SMF80RE2 DOCUMENTING   @M7A* 01829100
.* *          SETROPTS APPLAUDIT INDICATORS                       @M7A* 01829200
.* *      C - STATUS TO CORRECTLY CORRESPOND TO MVS LEVEL         @P4A* 01829300
.* *      A - ADDED DOUBLE BYTE LENGTH RELOCATE SECTIONS          @M8A* 01829400
.* *      A - NEED BYTE BOUNDARY FOR LONG RELOCATE SECTIONS       @P5A* 01832200
.* *      A - ADDED OMVS BIT DEFINITIONS AND ADDITIONAL FIELDS    @M9A* 01833600
.* *      A - ADDED OMVS EVENT CODES                              @P6A* 01834300
.* *      A - ADDED BITS FOR THREE EXITS                          @D8A* 01834600
.* *      A - ADDED XPG4 EVENT CODES                              @MAA* 01834700
.* *      A - ADDED UU EVENT CODE 64 (COMMENT ONLY)               @MBA* 01834800
.* *      A - ADDED OE EVENT CODE 65                              @P7A* 01835600
.* *          ADDED EXTERNAL CLASSIFICATION TO PROLOG.            @P7A* 01836400
.* *      C - RESERVE BIT 5 OF SMF81OP5 FOR IRREVX01 EXIT         @MCA* 01836800
.* *      C - RESERVE BIT 4 OF SMF81OP5 FOR NOADDCREATOR IN EFFCT @MDA* 01837000
.* *      C - RESERVE BIT 6 OF SMF81OP5 FOR IRRACX02 EXIT         @MEA* 01837100
.* *      C - CHANGED DEFINITION OF SMF81RPD TO ALLOW IRRADU00    @P8A* 01837300
.* *          UTILITY TO CORRECTLY DISPLAY VALUES EXCEEDING 32768 @P8A* 01837500
.* *                                                                  * 01837700
.* *                                                                  * 01838000
.* *                                                                  * 01846500
.* THIS IS AN SMF MACRO WHICH BUILDS SMF RECORDS 80-81 AND        @M5C* 01855000
.*     RECORD 83 SUBTYPE 1.                                       @M5A  01863500
.* REQUIRED FORMAT IS -                                               * 01872000
.*                                                                    * 01880500
.*       IFASMFR9  &RECTYPE                                           * 01889000
.********************************************************************** 01900000
         AIF   (&RECTYPE EQ 80).IFAS080                        @G32FPRL 01950000
         AIF   (&RECTYPE EQ 81).IFAS081                        @G32FPRL 02000000
         AIF   (&RECTYPE EQ 83).IFAS083                           @M5A* 02025000
.E5      ANOP                                                           02050000
         SPACE 3                                                        02100000
         MNOTE 4,'&RECTYPE INVALID RECORD TYPE SPECIFIED'               02150000
.CONTB   ANOP                                                           02200000
         MEXIT                                                          02250000
.IFAS080 ANOP                                                  @Z40RPPE 02300000
         EJECT                                                 @Z40RPPE 02350000
* RACF OPERATOR RECORD                                         @Z40RPPE 02400000
         DS    0F       ALIGN TO FULL WORD BOUNDARY            @Z40RPPE 02450000
SMFRCD80 EQU   *        HEADER SEGMENT                         @Z40RPPE 02500000
SMF80LEN DS    BL2      RECORD LENGTH                          @Z40RPPE 02550000
SMF80SEG DS    BL2      SEGMENT DESCRIPTOR                     @Z40RPPE 02600000
SMF80FLG DS    BL1      HEADER FLAG BYTE - SYSTEM              @Z40RPPE 02650000
*                       BIT MEANING WHEN SET                   @Z40RPPE 02700000
*                       BIT 6 - VS2                            @Z40RPPE 02750000
SMF80RTY DS    BL1      RECORD TYPE(80), ONLY HEADER FIELD SET @Z40RPPE 02800000
*                       BY GENERATOR OF RECORD                 @Z40RPPE 02850000
SMF80TME DS    BL4      TOD FROM TIME MACRO - BINARY           @Z40RPPE 02900000
SMF80DTE DS    PL4      DATE FROM TIME MACRO                   @Z40RPPE 02950000
SMF80SID DS    CL4      SYSTEM IDENTIFICATION                  @Z40RPPE 03000000
SMF80DES DS    BL2      DESCRIPTOR FLAGS                       @Z40RPPE 03050000
*                       BIT MEANING WHEN SET                   @Z40RPPE 03100000
*                       BIT 0 - THIS EVENT IS A VIOLATION      @Z40RPPE 03150000
*                       BIT 1 - USER NOT DEFINED TO RACF       @Z40RPPE 03200000
*                       BIT 2 - RCD CONTAINS VERSION INDICATOR @PC003LS 03250000
*                       BIT 3 - THIS EVENT IS A WARNING            @L6A 03300000
*                       BIT 4 - RECORD CONTAINS A VERSION,         @M3A 03320000
*                               RELEASE, AND MODIFICATION          @M3A 03340000
*                               NUMBER (VRRM)                      @M3A 03360000
*                       BITS 5-15 - RESERVED                       @M3C 03380000
SMF80EVT DS    BL1      EVENT CODE                             @Z40RPPE 03400000
*                       1 - JOB INITIATION/TSO LOGON           @Z40RPPE 03450000
*                       2 - RESOURCE ACCESS                    @G32FPRL 03500000
*                       3 - END OF VOLUME                      @G32FPRL 03550000
*                       4 - RENAME DATASET                     @Z40RPPE 03600000
*                       5 - SCRATCH DATASET OR TAPE VOLUME     @G32FPRL 03650000
*                       6 - DELETE 1 VOLUME OF MULTIVOLUME     @Z40RPPE 03700000
*                           DATASET OR TAPE VOLUME SET         @G32FPRL 03750000
*                       7 - DEFINE DATASET OR TAPE VOLUME SET  @G32FPRL 03800000
*                       8 - ADDSD                              @G32FPRL 03850000
*                       9 - ADDGROUP                           @G32FPRL 03900000
*                       10- ADDUSER                            @G32FPRL 03950000
*                       11- ALTDSD                             @G32FPRL 04000000
*                       12- ALTGROUP                           @G32FPRL 04050000
*                       13- ALTUSER                            @G32FPRL 04100000
*                       14- CONNECT                            @G32FPRL 04150000
*                       15- DELDSD                             @G32FPRL 04200000
*                       16- DELGROUP                           @G32FPRL 04250000
*                       17- DELUSER                            @G32FPRL 04300000
*                       18- PASSWORD                           @G32FPRL 04350000
*                       19- PERMIT                             @G32FPRL 04400000
*                       20- RALTER                             @G32FPRL 04450000
*                       21- RDEFINE                            @G32FPRL 04500000
*                       22- RDELETE                            @G32FPRL 04550000
*                       23- REMOVE                             @G32FPRL 04600000
*                       24- SETROPTS                           @G32FPRL 04650000
*                       25- RVARY                              @G32FPRL 04700000
*                       26- APPCLU                                 @P2A 04725000
*                       27- RESERVED                               @P6A 04725700
*                       28- DIRECTORY SEARCH                       @P6A 04726400
*                       29- CHECK ACCESS TO A DIRECTORY            @P6A 04727100
*                       30- CHECK ACCESS TO A FILE                 @P6A 04727800
*                       31- CHAUDIT                                @P6A 04728500
*                       32- CHDIR                                  @P6A 04729200
*                       33- CHMOD                                  @P6A 04729900
*                       34- CHOWN                                  @P6A 04730600
*                       35- CLEAR SETID BITS FOR FILE              @P6A 04731300
*                       36- EXEC WITH SETUID/SETGID                @P6A 04732000
*                       37- GETPSENT                               @P6A 04732700
*                       38- DUB                                    @P6A 04733400
*                       39- UNDUB                                  @P6A 04734100
*                       40- KILL                                   @P6A 04734800
*                       41- LINK                                   @P6A 04735500
*                       42- MKDIR                                  @P6A 04736200
*                       43- MKNOD                                  @P6A 04736900
*                       44- MOUNT FILE SYSTEM                      @P6A 04737600
*                       45- OPEN (NEW FILE)                        @P6A 04738300
*                       46- PTRACE                                 @P6A 04739000
*                       47- RENAME                                 @P6A 04739700
*                       48- RMDIR                                  @P6A 04740400
*                       49- SETEGID                                @P6A 04741100
*                       50- SETEUID                                @P6A 04741800
*                       51- SETGID                                 @P6A 04742500
*                       52- SETUID                                 @P6A 04743200
*                       53- SYMLINK                                @P6A 04743900
*                       54- UNLINK                                 @P6A 04744600
*                       55- UNMOUNT FILE SYSTEM                    @P6A 04745300
*                       56- CHECK FILE OWNER                       @P6A 04746000
*                       57- CHECK PRIV                             @P6A 04746700
*                       58- OPEN SLAVE TTY                         @P6A 04747400
*                       59- RESERVED                               @MAA 04747700
*                       60- XXXCHK (CHECK IPC ACCESS)              @MAA 04748000
*                       61- XXXGET (MAKE ISP)                      @MAA 04748300
*                       62- XXXCTL (R_IPC_CTL)                     @MAA 04748600
*                       63- SETGROUP                               @MBA 04748900
*                       64- CHECK OWNER 2 FILES                    @MBA 04749200
*                       65- ACCESS RIGHTS PASSED                   @P7A 04749600
SMF80EVQ DS    BL1      EVENT CODE QUALIFIER                   @Z40RPPE 04750000
SMF80USR DS    CL8      USER ID FOR WHICH THIS EVENT RECORDED  @Z40RPPE 04800000
SMF80GRP DS    CL8      GROUP TO WHICH USER WAS CONNECTED      @Z40RPPE 04850000
SMF80REL DS    BL2      OFFSET OF FIRST RELOCATE SECTION FROM  @Z40RPPE 04900000
*                       BEGINNING OF THE RECORD HEADER         @Z40RPPE 04950000
SMF80CNT DS    BL2      NUMBER OF RELOCATE SECTIONS            @Z40RPPE 05000000
SMF80ATH DS    BL1      SPECIAL AUTHORITIES USED               @G32FPRS 05050000
*                       BIT MEANINGS WHEN SET -                @G32FPRS 05100000
*                       BIT 0 - NORMAL AUTHORITY CHECK         @G32FPRS 05150000
*                       BIT 1 - SPECIAL ATTRIBUTE              @G32FPRS 05200000
*                       BIT 2 - OPERATIONS ATTRIBUTE           @G32FPRS 05250000
*                       BIT 3 - AUDITOR ATTRIBUTE              @G32FPRS 05300000
*                       BIT 4 - INSTALLATION EXIT ACTION       @G32FPRL 05350000
*                       BIT 5 - FAILSOFT PROCESSING                @L6A 05400000
*                       BIT 6 - BYPASSED - USERID=*BYPASS*         @D5A 05433300
*                       BIT 7 - TRUSTED ATTRIBUTE                  @01C 05466600
SMF80REA DS    BL1      REASON FOR LOGGING                     @G32FPRS 05500000
*                       BIT MEANINGS WHEN SET:                 @G32FPRS 05550000
*                       BIT 0 - CHANGES TO THIS CLASS OF       @G32FPRS 05600000
*                       PROFILE BEING AUDITED                  @G32FPRS 05650000
*                       BIT 1 - USER BEING AUDITED             @G32FPRS 05700000
*                       BIT 2 - SPECIAL USERS BEING AUDITED    @G32FPRS 05750000
*                       BIT 3 - ACCESS TO ENTITY BEING AUDITED          05800000
*                               DUE TO AUDIT OPTION                     05850000
*                               OR RACHECK INSTALLATION EXIT            05900000
*                               REQUESTED LOGGING, OR TO                05950000
*                               FAILSOFT  PROCESSING               @L6A 06000000
*                       BIT 4 - *RACINIT* FAILURE              @G32FPRS 06050000
*                       BIT 5 - THIS COMMAND IS ALWAYS AUDITED @G32FPRL 06100000
*                       BIT 6 - VIOLATION DETECTED AND CMDVIOL @G32FPRL 06150000
*                               IN EFFECT                      @G32FPRL 06200000
*                       BIT 7 - ACCESS TO ENTITY BEING AUDITED          06250000
*                               DUE TO GLOBALAUDIT OPTION          @L5A 06300000
SMF80TLV DS    BL1      TERMINAL LEVEL NUMBER OF FOREGROUND    @G32FPRL 06350000
*                       USER (ZERO IF NOT AVAILABLE OR NOT     @G32FPRL 06400000
*                       VERIFIED)                              @G32FPRL 06450000
SMF80ERR DS    BL1      COMMAND PROCESSING ERROR FLAG          @G32FPRS 06500000
*                       BIT MEANINGS WHEN SET:                 @G32FPRS 06550000
*                       BIT 0 - COMMAND HAD ERROR AND COULD    @G32FPRS 06600000
*                               NOT BACKOUT SOME CHANGES       @G32FPRS 06650000
*                       BIT 1 - NO PROFILE UPDATES MADE        @G32FPRL 06700000
*                               BECAUSE OF ERROR IN PROCESSING @G32FPRL 06750000
*                       BIT 2-7 - RESERVED                     @G32FPRL 06800000
SMF80TRM DS    CL8      TERMINAL ID OF FOREGROUND USER         @G32FPRS 06850000
*                       (ZEROES IF NOT AVAILABLE)              @G32FPRS 06900000
SMF80JBN DS    CL8      JOB NAME                               @G32FPRL 06950000
SMF80RST DS    BL4      TIME READER RECOGNIZED JOB CARD        @G32FPRL 07000000
*                       IN HUNDREDTHS OF SECONDS               @G32FPRL 07050000
SMF80RSD DS    PL4      DATE READER RECOGNIZED JOB CARD        @G32FPRL 07100000
*                       00YYDDDF FORMAT                        @G32FPRL 07150000
SMF80UID DS    CL8      USER IDENTIFICATION                    @G32FPRL 07200000
SMF80VER DS    XL1      VERSION INDICATOR FROM RCVT                @L8A 07207800
SMF80RE2 DS    BL1      REASON FOR LOGGING CONTINUED               @L8A 07215600
*                       BIT MEANINGS WHEN SET:                     @L8A 07223400
*                       BIT 0 - AUDITING BY SECURITY LEVEL         @L8A 07231200
*                       BIT 1 - VMEVENT AUDITING                   @M2A 07239000
*                       BIT 2 - 1 => CLASS BEING AUDITED           @D1A 07246800
*                                    DUE TO SETROPTS               @D1A 07254600
*                                    LOGOPTIONS                    @D1A 07262400
*                       BIT 3 - 1 => ENTITY AUDITED DUE TO         @M4A 07270200
*                                    SETROPTS SECLABELAUDIT        @M4A 07278000
*                                    AND PROFILE INDICATES         @M4A 07285800
*                                    AUDIT                         @M4A 07293600
*                       BIT 4 - 1 => ENTITY AUDITED WHEN SETROPTS  @D3A 07301400
*                                    COMPATMODE IN EFFECT          @D3A 07309200
*                       BIT 5 - AUDITED DUE TO SETROPTS APPLAUDIT  @M7A 07314400
*                       BIT 6 - 1 => AUDITED SINCE USER NOT        @M8C 07316400
*                                    DEFINED TO OMVS               @M8A 07318400
*                       BIT 7 - 1 => AUDITED SINCE USER DOES NOT   @M8A 07320400
*                                    HAVE APPROPRIATE OMVS AUTH.   @M8A 07322400
SMF80VRM DS    CL4      RACF VERSION, RELEASE, AND MODIFICATION    @M3A 07324800
*                       NUMBER (VRRM)                              @M3A 07332600
SMF80SEC DS    CL8      SECLABEL                                   @M4A 07340400
SMF80RL2 DS    BL2      OFFSET TO EXTENED LENGTH RELOCATE SECTIONS @M8A 07343600
SMF80CT2 DS    BL2      COUNT OF EXTENDED LENGTH RELOCATE SECTIONS @M8A 07346800
SMF80AU2 DS    BL1      AUTHORITY USED CONTINUED                   @M9A 07347300
*                       BIT 0 - 1 => OMVS SUPERUSER                @M9A 07347800
*                       BIT 1 - 1 => OMVS SYSTEM FUNCTION          @M9A 07348300
*                       BIT 2-7 - RESERVED                         @M9A 07348800
SMF80RSV DS    BL1      RESERVED                                   @M9A 07349300
***************************************************************@Z40RPPE 07350000
*     RELOCATE SECTION                                         @Z40RPPE 07400000
***************************************************************@Z40RPPE 07450000
SMF80DTP DS    BL1      DATA TYPE                              @Z40RPPE 07500000
SMF80DLN DS    BL1      LENGTH OF DATA THAT FOLLOWS            @Z40RPPE 07550000
SMF80DTA DS    CL255    DATA                                   @Z40RPPE 07600000
***************************************************************    @M8A 07607100
*     DOUBLE BYTE LENGTH RELOCATE SECTIONS                         @M8A 07614200
***************************************************************    @M8A 07621300
SMF80TP2 DS    BL2      DATA TYPE                                  @M8A 07628400
SMF80DL2 DS    BL2      LENGTH OF DATA THAT FOLLOWS                @M8A 07635500
SMF80DA2 DS    0C       DATA                                       @M8A 07642600
         AGO   .CONTB                                          @Z40RPPE 07650000
.IFAS081 ANOP                                                  @Z40RPPE 07700000
         EJECT                                                 @Z40RPPE 07750000
* RACF INITIALIZATION RECORD                                   @Z40RPPE 07800000
         DS    0F       ALIGN TO FULL WORD BOUNDARY            @Z40RPPE 07850000
SMFRCD81 EQU   *        HEADER SEGMENT                         @Z40RPPE 07900000
SMF81LEN DS    XL2      RECORD LENGTH                              @P3C 07950000
SMF81SEG DS    XL2      SEGMENT DESCRIPTOR                         @P3C 08000000
SMF81FLG DS    BL1      HEADER FLAG BYTE - SYSTEM              @Z40RPPE 08050000
*                       BIT MEANING WHEN SET                   @Z40RPPE 08100000
*                       BIT 6 - VS2                            @Z40RPPE 08150000
SMF81RTY DS    BL1      RECORD TYPE(81), ONLY HEADER FIELD SET @Z40RPPE 08200000
*                       BY GENERATOR OF RECORD                 @Z40RPPE 08250000
SMF81TME DS    XL4      TOD FROM TIME MACRO - BINARY               @P3C 08300000
SMF81DTE DS    CL4      DATE FROM TIME MACRO                       @P3C 08350000
SMF81SID DS    CL4      SYSTEM IDENTIFICATION                  @Z40RPPE 08400000
SMF81RDS DS    CL44     DSN OF RACF DATASET FOR THIS IPL       @Z40RPPE 08450000
SMF81RVL DS    CL6      VOLID OF RACF DATASET                  @Z40RPPE 08500000
SMF81RUN DS    CL3      UNIT NAME OF RACF DATASET              @Z40RPPE 08550000
SMF81UDS DS    CL44     DSN OF UADS DATASET FOR THIS IPL       @Z40RPPE 08600000
SMF81UVL DS    CL6      VOLID OF UADS DATA SET                 @Z40RPPE 08650000
SMF81OPT DS    BL1      OPTIONS INDICATOR                      @Z40RPPE 08700000
*                       BIT MEANING WHEN SET                   @Z40RPPE 08750000
*                       BIT 0 - NO RACINIT STATISTICS          @Z40RPPE 08800000
*                       BIT 1 - NO DATASET STATISTICS          @Z40RPPE 08850000
*                       BIT 2 - RACINIT PRE-PROCESSING         @G32FPRL 08900000
*                               INSTALLATION EXIT ACTIVE       @G32FPRL 08950000
*                       BIT 3 - RACHECK PRE-PROCESSING         @G32FPRL 09000000
*                               INSTALLATION EXIT ACTIVE       @G32FPRL 09050000
*                       BIT 4 - RACDEF PRE-PROCESSING          @G32FPRL 09100000
*                               INSTALLATION EXIT ACTIVE       @G32FPRL 09150000
*                       BIT 5 - RACINIT POST PROCESSING        @G32FPRL 09200000
*                               INSTALLATION EXIT IS ACTIVE    @G32FPRL 09250000
*                       BIT 6 - RACHECK POST PROCESSING        @G32FPRL 09300000
*                               INSTALLATION EXIT IS ACTIVE    @G32FPRL 09350000
*                       BIT 7 - NEW PASSWORD VERIFICATION          @L4A 09400000
*                               INSTALLATION EXIT IS ACTIVE.       @L4A 09450000
SMF81OP2 DS    BL1      OPTIONS INDICATOR 2                    @G32FPRS 09500000
*                       BIT MEANINGS WHEN SET:                 @G32FPRS 09550000
*                       BIT 0 - NO TAPE VOL. STATS ARE BEING   @G32FPRS 09600000
*                               RECORDED                       @G32FPRS 09650000
*                       BIT 1 - NO DASD VOLUME STATISTICS ARE  @G32FPRS 09700000
*                               BEING RECORDED                 @G32FPRS 09750000