*        %GOTO IFAL20;   /*                                             00050000
         MACRO                                                          00100000
&NAME    IFASMFR2 &RECTYPE                                              00150000
.* * MACRO-NAME = IFASMFR2                                        @02C* 00200000
.* *                                                                  * 00250000
.* * PROPRIETARY STATEMENT =                                          * 00560000
.* *  LICENSED MATERIALS - PROPERTY OF IBM                            * 00580000
.* *  5647-A01 (C) COPYRIGHT IBM CORP. 1982, 2000                     * 00600000
.* *                                                                  * 00620000
.* * STATUS = HBB7703                                                 * 00630000
.* *                                                                  * 00640000
.* * EXTERNAL CLASSIFICATION: NONE                                @P4A* 00643300
.* * END OF EXTERNAL CLASSIFICATION:                              @P4A* 00646600
.* *                                                                  * 00650000
.* * MACMEAN IFASMFR2 MEANS SYSTEM MANAGEMENT FACILITY RECORD MAPPING * 00700000
.* * MACCOMP Y-2 SC102/BL27P                                          * 00750000
.* * MACSTAT Y-2 73298/42020                                          * 00800000
.* * METHOD OF ACCESS                                                 * 00850000
.* *   PL/S - INCLUDE MACRO FROM LIBRARY                              * 00900000
.* *           EXAMPLE - %INCLUDE SYSLIB(IFASMFR2)                    * 00950000
.* *                                                                  * 01000000
.* *          THIS MACRO EXPANDS RECORDS 20 -27.                      * 01050000
.* *                                                                  * 01100000
.* *                                                                    01150000
.* THIS IS AN SMF MACRO WHICH BUILDS SMF RECORDS 20-27. THE REQUIRED    01200000
.* FORMAT IS -                                                          01250000
.*                                                                      01300000
.*          IFASMFR2 &RECTYPE                                           01350000
.*                                                                      01400000
.* CHANGE ACTIVITY:                                                     01450000
.*                                                                      01500000
.* TYPE 26 RECORD - REMOVE ORG STMTS APPROX 147550,156550      @ZA12438 01550000
.* TYPE 26 RECORD - ADD ORG STMTS TO EVENTS,ACTUALS SECTIONS   @ZA17757 01600000
.* TYPE 26 RECORD - ADD JES2 ROUTING SECTION                   @G387P27 01650000
.* TYPE 26 RECORD - ADD JES2 NETWORK SECTION                   @ZA62109 01700000
.* TYPE 22 RECORD - ADD CHANNEL PATH SECTION & STORAGE CHANGE  @G860P27 01750000
.* TYPE 26 RECORD - ADD PRINT SECTION                          @ZA74830 01800000
.* TYPE 22 RECORD - GALLUP SUPPORT FOR TYPE 21                     @TCA 01816600
.* TYPE 22 RECORD - 3990 ADDED SUPPORT                         @YA19861 01833200
.* TYPE 22 RECORD - ADD SMF22IND VALUE '8' COMMENT                 @0KA 01836000
.* TYPE 23 RECORD - ADD TIME THE STATUS FUNCTION WAS SCHEDULED FOR @LRA 01838800
.*                  SMF INTERVAL SYNC SUPPORT                      @LRA 01844400
.* TYPE 22 RECORD - MOVE DYNAMIC I/O SECTION TO IOS COMP ID        @LSA 01847200
.* TYPE 21 Record - Transfer Mapping to DFP                        @01A 01848100
.* TYPE 22 RECORD - ADD SMF22IND VALUE '8' COMMENT                 @0KA 01849000
.* TYPE 23 RECORD - Include system-related data fields             @02A 01849500
.* Add External Classification                                     @P4A 01849700
.*                                                                      01850000
.* $H3=ES      ,JBB2133,830912,PDFS: EXTENDED STORE, TYPE 22       @H3A 01900000
.* $H4=VF      ,JBB2214,840320,PDFS: VECTORS SUPPORT, TYPE 22      @H4A 01950000
.* $T7=UZ90334 ,JBB2125,840523,PDFS: TRANSFER REC 25,26 TO SC141   @T7A 02000000
.* $T8=UZ90378 ,JBB2133,841226,PDFS: ADD JES2 TYPE 24 RECORD       @T8A 02050000
.* $T9=UZ90410 ,JBB2214,850620,PDFS: 3480 SUPPORT FOR TYPE 21      @T9A 02100000
.* $TC=YA11323 ,JBB2220,860902,PDFS: GALLUP SUPPORT FOR TYPE 22    @TCA 02112500
.* $DD=DCR290  ,HBB3310,871123,PDFS: TYPE 22 FOR >2G EXT. STOR     @DDA 02125000
.* $TE=OY27075 ,JBB3313,890309,PDLO: ADD INTEGRATED CRYPTO SERVICE      02125700
.*                                   FACILITY SUPPORT              @TEA 02126400
.* $0I=OY32650 ,JBB3313,901109,PDMF: TYPE 22 MAX LENGTH            @0IA 02127100
.* $0J=OY27449 ,JBB3313,901101,PDBR: BUFFER ALLOC PROCESSING       @0JA 02127800
.* $0K=OY59035 ,JBB2220,930131,PDSL: SMF22IND SMF RECORD CREATOR   @0KA 02128500
.*                                   INDICATOR FIELD NOT           @0KA 02129200
.*                                   DOCUMENTED CORRECTLY          @0KA 02129900
.* $H5=DYNAM   ,HBB4420,891231,PDMF: DYNAMIC I/O CONFIGURATION     @H5A 02131200
.* $P1=PH30835 ,HBB4420,900504,PDMF: DYNAMIC I/O CONFIGURATION     @P1A 02137400
.* $P2=PH30923 ,HBB4420,900604,PDMF: DYNAMIC I/O CONFIGURATION     @P2A 02143600
.* $P3=PH31941 ,HBB4420,901206,PDBR: Correct Dynam I/O Section ID  @P3A 02145200
.* $0I=OY32650 ,HBB4420,901109,PDMF: TYPE 22 MAX LENGTH            @0IA 02157700
.* $0J=OY27449 ,HBB4420,901101,PDBR: BUFFER ALLOC PROCESSING       @0JA 02164700
.* $LR=SYNCS   ,HBB4430,911108,PDDH: SMF INTERVAL SYNC SUPPORT     @LRA 02167000
.*                                   (STAGE 3)                     @LRA 02169300
.* $LS=PRSMM   ,HBB4430,920205,PDLQ: TRANSFER I/O CONFIGURATION CHANGE  02169600
.*                                   ELEMENT OF RECORD TYPE 22 TO       02169900
.*                                   SC1C3. NOTE THAT CHANGE ACTIVITY   02170200
.*                                   FLAGGING HAS BEEN REMOVED FOR      02170500
.*                                   PH30835, PH30923, AND PH31941.     02170800
.*                                                                 @LSA 02171100
.* $01=OY56189 ,HBB4410,920825,PDBR: DFP Records Transfer          @01A 02171200
.* $0K=OY59035 ,JBB2220,930131,PDSL: SMF22IND SMF RECORD CREATOR   @0KA 02171300
.*                                   INDICATOR FIELD NOT           @0KA 02171400
.*                                   DOCUMENTED CORRECTLY          @0KA 02171500
.* $02=OW03229 ,HBB5510,940325,PDDH: System data in SMF record     @02A 02171600
.* $P4=PN71727 ,HBB5520,941020,PDDH: CDPI: SHOWHDR Cleanup         @P4A 02171700
.*                                                                      02171800
.********************************************************************** 02200000
         AIF   (&RECTYPE EQ 20).IFAS020                                 02250000
         AIF   (&RECTYPE EQ 21).IFAS021                                 02300000
         AIF   (&RECTYPE EQ 22).IFAS022                         Y02034  02350000
         AIF   (&RECTYPE EQ 23).IFAS023                       @G743PJW  02400000
         AIF   (&RECTYPE EQ 24).IFAS024                           @T8A  02450000
         AIF   (&RECTYPE EQ 25).IFAS025                       @Y02BPSE  02500000
         AIF   (&RECTYPE EQ 26).IFAS026                         Y02120  02550000
.E5      ANOP                                                           02600000
         SPACE 3                                                        02650000
         MNOTE 4,'&RECTYPE INVALID RECORD TYPE SPECIFIED'               02700000
.CONTB   ANOP                                                           02750000
         MEXIT                                                          02800000
.IFAS020 ANOP                                                           02850000
         EJECT                                                          02900000
* JOB COMMENCEMENT RECORD WRITTEN WHEN A JOB IS INITIATED.              02950000
* LENGTH IS VARIABLE. MINIMUM OF 61 BYTES.                              03000000
*                                                                       03050000
         DS    0F        ALIGN TO FULL WORD BOUNDARY                    03100000
SMFRCD20 EQU   *         RECORD 20                                      03150000
SMF20LEN DS    BL2'0'    RECORD LENGTH                                  03200000
SMF20SEG DS    BL2'0'    SEGMENT DESCRIPTOR                             03250000
SMF20HDR EQU   *         HEADER SEGMENT                                 03300000
SMF20FLG DS    BL1'0'    HEADER FLAG BYTE                               03350000
SMF20RTY DS    BL1'0'    RECORD TYPE 20                                 03400000
SMF20TME DS    BL4'0'    TOD, USING TIME MACRO W/BIN. INTVL.            03450000
SMF20DTE DS    PL4'0000' DATE, PACKED/DEC FORM; 00YYDDDF                03500000
SMF20SID DS    CL4' '    SYSTEM ID                               Y02901 03550000
SMF20JBN DS    CL8' '    JOB NAME                                       03600000
SMF20RST DS    BL4'0'    READER START TIME                              03650000
SMF20RSD DS    PL4'0000' READER START DATE, PK/DEC FORM: 00YYDDDF       03700000
SMF20UID DS    CL8' '    USERID                                         03750000
SMF20RIN DS    BL2'0'                                          @G32FPRS 03800000
         ORG   SMF20RIN                                        @G32FPRL 03850000
SMF20RLO DS    BL2'0'    OFFSET TO RELOCATE SECTION            @G32FPRL 03900000
SMF20PGM DS    CL20' '   PROGRAMMERS NAME                               03950000
SMF20NAF DS    BL1'0'    NO. ACCOUNTING FIELDS                          04000000
SMF20ACT EQU   *         ACCOUNTING FIELDS                              04050000
* BEGINNING OF RELOCATE SECTION                                         04100000
* SMF20RLO IS ITS OFFSET FROM BEGINNING OF HEADER - SMF20HDR   @G32FPRL 04150000
SMF20RLA EQU   *         RELOCATABLE AREA                      @G32FPRL 04200000
SMF20RLS DS    BL2       SIZE OF RELOCATABLE AREA              @G32FPRL 04250000
SMF20GRP DS    CL8' '    RACF GROUP ID                         @G32FPRS 04300000
SMF20RUD DS    CL8' '    RACF USER ID                          @G32FPRS 04350000
SMF20TID DS    CL8' '    RACF TERMINAL ID                      @G32FPRS 04400000
         AGO   .CONTB                                                   04450000
.IFAS021 ANOP                                                           04500000
         EJECT                                                          04550000
         IGESMF21        Call DFP Macro To Expand Record           @01A 04600000
* Remove Inline Declares                                         30@01D 04650000
         AGO   .CONTB                                                   06250000
.IFAS022 ANOP                                                    Y02034 06300000
         EJECT                                                   Y02034 06350000
*  THIS RECORD IS WRITTEN AFTER EVERY IPL AND EACH TIME A VARY   Y02034 06400000
*  COMMAND IS PROCESSED FOR A CPU, CHANNEL OR STORAGE BOX,         @H5C 06433300
*  OR EACH TIME AN ACTIVATE COMMAND IS ISSUED.                     @H5A 06466600
*  LENGTH IS VARIABLE. MINIMUM OF 24.                            Y02034 06500000
*                                                                Y02034 06550000
         DS    0F                  ALIGN ON FULLWORD BDY         Y02034 06600000
SMFRCD22 EQU   *                   HEADER SEGMENT                Y02034 06650000
SMF22LEN DS    BL2                 RECORD LENGTH                 Y02034 06700000
SMF22SEG DS    BL2                 SEGMENT DESRIPTOR             Y02034 06750000
SMF22FLG DS    BL1                 HEADER FLAG BYTE              Y02034 06800000
SMF22RTY DS    BL1                 RECORD TYPE (22)              Y02034 06850000
SMF22TME DS    BL4                 TOD FROM TIME MACRO BINARY    Y02034 06900000
SMF22DTE DS    PL4                 DATE FROM TIME MACRO          Y02034 06950000
SMF22SID DS    CL4                 SYSTEM INDICATOR              Y02034 07000000
SMF22IND DS    BL2                 RECORD CREATOR INDICATOR      Y02034 07050000
*                                  X'0001' AT IPL                Y02034 07100000
*                                  X'0002' BY VARY ON            Y02034 07150000
*                                  X'0003' BY VARY OFF           Y02034 07200000
*                                  X'0007' BY VARY CHANNEL PATH ONLINE  07250000
*                                  OR OFFLINE                  @G860P27 07300000
*                                  X'0008' BY 3990 STATE CHANGE    @0KA 07312500
*                                  X'0009' BY ACTIVATE             @H5A 07325000
*                                  '0099' RECORD IS A CONTINUATION @0IA 07337500
SMF22ECT DS    BL2                 # OF ELEMENTS FOLLOWING       Y02034 07350000
SMF22RSC EQU   *                   RESOURCE ELEMENTS             Y02034 07400000
*                                  CPU ELEMENT                   Y02034 07450000
SMF22CFG DS    BL1                 CPU FLAGS                       @H4A 07500000
SMF22VFI EQU   X'80'               VECTOR FEATURE INDICATOR        @H4A 07550000
*                                  (1 = ONLINE)                    @H4A 07600000
SMF22CCP EQU   X'20'               CPU RECONFIG INDICATOR          @TEA 07625000
SMF22PID DS    BL1                 PROCESSOR ID X'01'            Y02034 07650000
SMF22CPN DS    BL2                 CPU MODEL #                   Y02034 07700000
SMF22RV1 DS    BL1                 RESV                          Y02034 07750000
SMF22CPA DS    BL1                 CPU ADDRESS                   Y02034 07800000
         ORG   SMF22RSC                                          Y02034 07850000
*                                  CHANNEL ELEMENT               Y02034 07900000
SMF22CSD DS    BL1                 CHANNEL SET ID              @G64APJW 07950000
SMF22CID DS    BL1                 CHANNEL ID X'02'              Y02034 08000000
SMF22CHN DS    BL2                 CHANNEL TYPE AND MODEL #      Y02034 08050000
SMF22CHA DS    BL1                 CHANNEL ADDRESS               Y02034 08100000
SMF22CPD DS    BL1                 CPU ADDRESS                   Y02034 08150000
         ORG   SMF22RSC                                          Y02034 08200000
*                                  STORAGE ELEMENT(MEMORY)       Y02034 08250000
SMF22MFL DS    BL1                 MEMORY FLAGS                @ZMC1115 08300000
SMF22SKP EQU   X'80'               REAL MEMORY IS INTERLEAVED  @ZMC1115 08350000
SMF22TID DS    BL1                 STORAGE ID X'03'              Y02034 08400000
SMF22PGL DS    F                   ADDR OF LOWEST PAGE IN STOR @G860P27 08450000
SMF22NPG DS    F                   # OF PAGES IN REAL STORAGE  @G860P27 08500000
         ORG   SMF22RSC                                        @Y30AQPF 08550000
*                                  IPL ELEMENT                 @Y30AQPF 08600000
SMF22RV4 DS    BL1                 RESV                        @Y30AQPF 08650000
SMF22IID DS    BL1                 IPL ID X'04'                @Y30AQPF 08700000
SMF22ION DS    BL40                UNITS ONLINE AT IPL         @Y30AQPF 08750000
         ORG   SMF22RSC                                        @Y30AQPF 08800000
*                                  VARY S ONLINE ELEMENT       @Y30AQPF 08850000
SMF22RV5 DS    BL1                 RESV                        @Y30AQPF 08900000
SMF22NID DS    BL1                 VARY S ONLINE ID X'05'      @Y30AQPF 08950000
SMF22RVA DS    BL1                 RESV                        @Y30AQPF 09000000
SMF22NSI DS    BL3                 SUBSYSTEM ID                @Y30AQPF 09050000
         ORG   SMF22RSC                                        @Y30AQPF 09100000
*                                  VARY S OFFLINE ELEMTNT      @Y30AQPF 09150000
SMF22RV6 DS    BL1                 RESV                        @Y30AQPF 09200000
SMF22FID DS    BL1                 VARY S OFFLINE ID X'06'     @Y30AQPF 09250000
SMF22RVB DS    BL1                 RESV                        @Y30AQPF 09300000
SMF22FSI DS    BL3                 SUBSYSTEM ID                @Y30AQPF 09350000
         ORG   SMF22RSC                                        @G860P27 09400000
*                                  CHANNEL PATH SECTION        @G860P27 09450000
SMF22RV7 DS    BL1                 RESERVED                    @G860P27 09500000
SMF22UID DS    BL1                 CHANNEL PATH SECT ID X'07'  @G860P27 09550000
SMF22PAR DS    0CL256              CHANNEL PATH ID SECTION     @G860P27 09600000
SMF22CPI DS    256BL1              ARRAY OF 256 ENTRIES TO MAP EACH     09650000
*                                  UNIQUE CPID                 @GSE4P27 09700000
SMF22PFG EQU   X'80'               1=CPID VALID FOR THIS INSTALLATION.  09750000
*                                  IF 0, SMF22POW=0  AND SMF22PON=0     09800000
*                                                              @G860P27 09850000
SMF22POW EQU   X'40'               1=CPID OWNED BY THIS SYSTEM.         09900000
*                                  IF 1, SMF22PFG=1. IF 0, SMF22PON=0   09950000
*                                                              @G860P27 10000000
SMF22PON EQU   X'20'               1=CPID IS ONLINE. IF 1, SMF22PFG=1   10050000
*                                  AND SMF22POW=1              @G860P27 10100000
         ORG   SMF22RSC                                        @ZMC1361 10150000
*                                  VARY CHANNEL PATH SECTION   @ZMC1361 10200000
SMF22RV8 DS    BL1                 RESERVED                    @ZMC1361 10250000
SMF22RID DS    BL1                 CHANNEL PATH SECT ID X'08'  @ZMC1361 10300000
SMF22CNT DS    BL1                 COUNT OF CHPIDS IN SECTION  @ZMC1361 10350000
SMF22CHI DS    256BL1              CHANNEL PATH IDS            @ZMC1361 10400000
         ORG   SMF22RSC                                            @H3A 10450000
*                                  EXTENDED STORAGE ELEMENT        @H3A 10500000
         DS    BL1                 RESERVED                        @H3A 10550000
SMF22XID DS    BL1                 EXTENDED STORAGE ID X'09'       @H3A 10600000
SMF22XAD DS    F                   PAGE ADDR OF LOWEST PAGE IN     @H3A 10609600
*                                  EXTENDED STORAGE BLOCK          @H3A 10619200
SMF22XNP DS    F                   # OF PAGES IN EXTENDED STORAGE  @H3A 10628800
*                                  BLOCK                           @H3A 10638400
         ORG   SMF22RSC                                            @TCA 10648000
*                                  STORAGE CONTROL ELEMENT         @TCA 10657600
         DS    BL1                 RESERVED                        @TCA 10667200
SMF22GID DS    BL1                 STORAGE CONTROL ID X'0A'        @TCA 10676800
SMF22SSI DS    BL2                 SUBSYSTEM IDENTIFIER            @TCA 10686400
SMF22MDL DS    BL1                 SUBSYSTEM MODEL IDENTIFIER      @TCA 10696000
SMF22VOL DS    CL6                 ORIGINATING DEVICE VOLSER       @TCA 10705600
SMF22CUA DS    BL2                 ORIGINATING DEVICE ID           @TCA 10715200
SMF22CCA DS    BL1                 ORIGINATING DEVICE CCA          @TCA 10724800
SMF22DDC DS    BL1                 ORIGINATING DEVICE DDC          @TCA 10734400
SMF22PDC DS    BL1                 ORIGINATING DEVICE PRIOR DDC    @TCA 10744000
SMF22SCS DS    BL1                 SUBSYSTEM CACHING STATUS        @TCA 10753600
SMF22PCS DS    BL1                 SUBSYSTEM CACHING PRIOR STATUS  @TCA 10763200
SMF22SNV DS    BL1                 SUBSYSTEM NVS STATUS            @TCA 10772800
SMF22PNV DS    BL1                 SUBSYSTEM NVS PRIOR STATUS      @TCA 10782400
SMF22SDS DS    BL2                 ORIGINATING DEVICE STATUS       @TCA 10792000
SMF22PDS DS    BL2                 ORIG. DEVICE PRIOR STATUS       @TCA 10801600
SMF22ADS DS    BL1                 ORIG.DEVICE ADDITIONAL STAT @YA19861 10811200
         DS    BL1                 RESERVED                    @YA19861 10820800
SMF22PAD DS    BL1                 ORIG.DEVICE PRIOR ADD.STAT  @YA19861 10830400
         DS    BL1                 RESERVED                    @YA19861 10840000
         ORG   SMF22RSC                                            @0IA 10840100
*                                  CONTINUATION SECTION            @0IA 10840200
SMF22L99 DS    BL1                 LENGTH OF SECTION               @0IA 10840300
SMF22CON DS    BL1                RECORD WILL BE CONTINUED ID '99' @0IA 10840400
.* 111 LINES DELETED FROM REC 22 (TRANSFER OWNERSHIP TO SC1C3)  111@LSD 10848700
         EJECT                                                     @LSA 10857000
         IOSDSMFR         CALL SC1C3 TO EXPAND THE I/O CONFIGURATION    10865300
.*                               CHANGE ELEMENT OF REC TYPE 22     @LSA 10873600
         AGO   .CONTB                                            Y02034 10882200
.IFAS023 ANOP                                                  @G743PJW 10900000
*                                                              @G743PJW 10950000
* SMF TYPE 23 RECORD - SMF STATISTICS                          @G743PJW 11000000
*                                                              @G743PJW 11050000
* THIS RECORD IS WRITTEN AT USER SPECIFIED INTERVALS TO        @G743PJW 11100000
* RECORD SMF STATISTICS COLLECTED DURING THE LAST INTERVAL     @G743PJW 11150000
*                                                              @G743PJW 11200000
* THE RECORD LENGTH IS VARIABLE                                @G743PJW 11250000
*                                                              @G743PJW 11300000
SMFRCD23 DSECT ,                                               @G743PJW 11350000
*                                                              @G743PJW 11400000
*        SMF RECORD HEADER SEGMENT                             @G743PJW 11450000
*                                                              @G743PJW 11500000
SMF23LEN DS    H'0'      RECORD LENGTH                         @G743PJW 11550000
SMF23SEG DS    H'0'      SEGMENT DESCRIPTOR                    @G743PJW 11600000
SMF23FLG DS    BL1       HEADER FLAG BYTE                      @G743PJW 11650000
SMF23RTY DS    BL1       RECORD TYPE - 23                      @G743PJW 11700000
SMF23TME DS    CL4       RECORD WRITTEN TIME                   @G743PJW 11750000
SMF23DTE DS    CL4       RECORD WRITTEN DATE                   @G743PJW 11800000
SMF23SID DS    CL4       SYSTEM IDENTIFICATION                 @G743PJW 11850000
*                                                              @G743PJW 11900000
*        SELF DEFINING SECTION                                 @G743PJW 11950000
*                                                              @G743PJW 12000000
         DS    BL2       RESERVED                              @VS49902 12050000
SMF23SLS DS    0CL24     SELF DEFINING SECTION                 @G744PJW 12100000
SMF23POF DS    F         OFFSET TO PRODUCT SEGMENT             @VS49902 12150000
SMF23PLN DS    H         LENGTH OF PRODUCT SEGMENT             @G743PJW 12200000
SMF23PON DS    H         NUMBER OF PRODUCT SEGMENTS            @G743PJW 12250000
SMF23SOF DS    F         OFFSET TO SYSTEM SEGMENT              @VS49902 12300000
SMF23SLN DS    H         LENGTH OF SYSTEM SEGMENT              @G743PJW 12350000
SMF23SON DS    H         NUMBER OF SYSTEM SEGMENTS             @G743PJW 12400000
SMF23ROF DS    F         OFFSET TO SMF SEGMENT                 @VS49902 12450000
SMF23RLN DS    H         LENGTH OF SMF SEGMENT                 @G743PJW 12500000
SMF23RON DS    H         NUMBER OF SMF SEGMENTS                @G743PJW 12550000
*                                                              @G743PJW 12600000
*        PRODUCT SECTION                                       @G743PJW 12650000
*                                                              @G743PJW 12700000
SMF23PRS DSECT ,                                               @G743PJW 12750000
SMF23TID DS    H         SUBTYPE ID - 0                        @G743PJW 12800000
SMF23RVN DS    CL2       RECORD VERSION - '01'                 @G743PJW 12850000
SMF23PNM DS    CL8       PRODUCT NAME - SMF                    @G743PJW 12900000
*                                                              @G743PJW 12950000
*        SYSTEM DEFINITION SEGMENT                             @G743PJW 13000000
*                                                              @G743PJW 13050000
SMF23SDS DSECT ,                                               @G743PJW 13100000
SMF23INT DS    CL6       INTERVAL IN HHMMSS                    @G743PJW 13150000
SMF23RLS DS    CL4       OPERATING SYSTEM RELEASE NUMBER       @G743PJW 13200000
SMF23OSL DS    CL8       MVS Product Name (copied from CVTPRODN)   @0JA 13225000
SMF23TOD DS    CL8       Time the STATUS function was scheduled    @LRA 13233300
*                        (in TOD format)                           @LRA 13241600
SMF23SYN DS    CL8       System name                               @02A 13244400
SMF23SYP DS    CL8       Sysplex name                              @02A 13247200
*                                                              @G743PJW 13250000
*        SMF STATISTICS SEGMENT                                @G743PJW 13300000
*                                                              @G743PJW 13350000
SMF23SMF DSECT ,                                               @G743PJW 13400000
SMF23BFW DS    F         NUMBER OF BUFFERS WRITTEN             @G743PJW 13450000
SMF23BFQ DS    F         MAXIMUM NUMBER OF FULL BUFFERS        @G743PJW 13500000
SMF23SUS DS    F         NUMBER OF TIMES SUSPENDED             @G743PJW 13550000
SMF23RCW DS    F         NUMBER OF RECORDS WRITTEN             @G743PJW 13600000
SMF23BFA DS    F         Amount of each Buffer Allocation Request  @0JA 13606200
SMF23BFT DS    F         TOTAL Amount of Buffer Storage Currently  @0JA 13612400
*                        Allocated                                 @0JA 13618600
SMF23BFH DS    F         High Water Mark of Buffer Storage         @0JA 13624800
*                        Allocation                                @0JA 13631000
SMF23BFM DS    F         Buffer Storage Maximum in affect          @0JA 13637200
SMF23BFL DS    F         Buffer Warning Level in affect            @0JA 13643400
         AGO   .CONTB                                          @G743PJW 13650000
.IFAS024 ANOP                                                      @T8A 13700000
         EJECT                                                     @T8A 13750000
         IAZSMFR 24      CALL SC141 TO EXPAND REC 24               @T8A 13800000
         AGO   .CONTB                                              @T8A 13850000
.IFAS025 ANOP                                                  @Y02BPSE 13900000
.* 45 LINES DELETED(MAP OF REC 25)TO TRANSFER OWNERSHIP TO SC141 45@T7D 13950000
         EJECT                                                 @Y02BPSE 14000000
         IAZSMFR 25      CALL SC141 TO EXPAND REC 25               @T7A 14050000
         AGO   .CONTB                                                   14100000
.IFAS026 ANOP                                                    Y02120 14150000
.* 185 LINES DELETED(MAP OF REC 26) TO XFER OWNERSHIP TO SC141  185@T7D 14200000
         EJECT                                                   Y02120 14250000
         IAZSMFR 26      CALL SC141 TO EXPAND REC 26               @T7A 14300000
         AGO   .CONTB                                            Y02120 14350000
         MEND       */                                                  14400000
 %IFAL20: INCLIAZ='';             /* INIT SWITCH FOR IAZ MACROS  @T7A*/ 14450000
         %IF IFAR20='' %THEN %GOTO IFAL21;                   /*  @T7C*/ 14500000
    DCL 1 SMFRCD20 BASED(SMF20PTR) BDY(WORD),                           14550000
 /* RECORD TYPE 20 - JOB INITIATION                                  */ 14600000
 /* WRITTEN BY JOB INITIATION                                        */ 14650000
         3 SMF20LEN FIXED(15),    /* RDW RECORD LENGTH               */ 14700000
         3 SMF20SEG FIXED(15),    /* RDW SEGMENT DESCRIPTOR          */ 14750000
         3 SMF20FLG BIT(8),       /* OPERATING ENVIRONMENT           */ 14800000
         3 SMF20RTY FIXED(8),     /* RECORD TYPE 20                  */ 14850000
         3 SMF20TME FIXED(31) BDY(HWORD), /* TOD RECORD WRITTEN      */ 14900000
         3 SMF20DTE CHAR(4),      /* DATE RECORD WRITTEN             */ 14950000
         3 SMF20SID CHAR(4),      /* SYSTEM ID FROM INSTALLATION     */ 15000000
         3 SMF20JBN CHAR(8),      /* JOB NAME                        */ 15050000
         3 SMF20RST FIXED(31) BDY(HWORD), /*READER START TIME(.01 SEC)*/15100000
         3 SMF20RSD CHAR(4),      /* READER START DATE               */ 15150000
         3 SMF20UIF CHAR(8),      /* USER ID FIELD                   */ 15200000
          5 SMF20UID CHAR(8),                                           15250000
         3 SMF20RIN FIXED(15) BDY(HWORD),            /*      @G32FPRL*/ 15300000
           5 SMF20RLO FIXED(15) BDY(HWORD), /* OFFSET FROM BEGINNING    15350000
                                              OF RECORD TO RELOCATABLE  15400000
                                              AREA           @G32FPRL*/ 15450000
         3 SMF20PGM CHAR(20),     /* PROGRAMMER'S NAME               */ 15500000
         3 SMF20NAF FIXED(8),     /* # OF ACCT FIELDS FOLLOWING      */ 15550000
         3 SMF20ACT CHAR(*);      /* ACCOUNTING FIELDS       @G32FPRL*/ 15600000
    DCL 1 SMF20AFD BASED BDY(BYTE), /* ACCT SECTION                  */ 15650000
         3 SMF20ANC PTR(8),       /* # OF CHAR IN THIS ACCT FIELD    */ 15700000
         3 SMF20BCD CHAR(*);      /* ACCT FIELD CHARACTERS           */ 15750000