         MACRO                                                          03000003
&NAME    IFD   &I                                                       06000003
         AIF   ('&I' LT '5').IF1                                        09000003
         MNOTE 8,'***  IHB404  VALUE GREATER THAN 4; 0 ASSUMED'         12000000
&NAME    DC    0H'0',X'FD',X'0'                                         15000003
         AGO   .END                                                     18000003
.IF1     ANOP                                                           21000003
&NAME    DC    0H'0',X'FD',AL.4(&I),AL.4(0)                             24000003
.END     MEND                                                           27000003
