*        %GOTO SMF21PLS;      /*                                        00050000
         MACRO                                                          00100000
&NAME    IGESMF21                                                       00150000
.********************************************************************** 00200000
.*                                                                    * 00250000
.* $MAC(IGESMF21)  SMF Type 21 Record Mapping Macro                   * 00300000
.*                                                                    * 00350000
.*PROPRIETARY V3 STATEMENT                                            * 00400000
.*LICENSED MATERIALS - PROPERTY OF IBM                                * 00450000
.*"RESTRICTED MATERIALS OF IBM"                                       * 00500000
.*5695-DF1                                                            * 00550000
.*(C) COPYRIGHT 1993  IBM CORP.                                       * 00600000
.*END PROPRIETARY V3 STATEMENT                                        * 00650000
.*                                                                    * 00750000
.* Function: Maps SMF Type 21 record.                                 * 00775000
.*           This record is written by the error statistics by        * 00800000
.*           volume option whenever a tape volume is demounted.       * 00825000
.*                                                                    * 00850000
.* Status: DFSMS/MVS 1.2.0                                            * 00875000
.*                                                                    * 00900000
.* Method of Access:                                                  * 00950000
.*   ASM - User includes Record Type on IFASMFR macro invocation      * 01000000
.*         Examples:                                                  * 01050000
.*         - IFASMFR  21                                              * 01100000
.*         - IFASMFR (...,21,...)                                     * 01150000
.*                                                                    * 01200000
.*  PL/S - User defines a macro variable IFAR21 where 21=Record type  * 01250000
.*         being requested, INCLUDEs the IFASMFR macro and declares   * 01300000
.*         the basing pointer for the record mapping.                 * 01350000
.*         Example:                                                   * 01400000
.*         - %IFAR21 = 'YES'                                          * 01450000
.*           DCL SMF21PTR PTR(31)                                     * 01500000
.*           %INCLUDE SYSLIB(IFASMFR)                                 * 01550000
.*                                                                    * 01600000
.*                                                                    * 01650000
.* NOTE: All record mapping changes must be forwarded to the SMF      * 01800000
.*       writer for inclusion in the SMF Manual                       * 01850000
.*                                                                    * 01900000
.*                                                                    * 01925000
.* CHANGE ACTIVITY =                                                  * 01950000
.*                                                                    * 02000000
.* $00=.......,.......,......,: DFP Record Mappings Transfer      @00A* 02012500
.* $L1=KMM3025,JDZ1110,SJPLEYC: Add declare for SMF21DL           @L1A* 02025000
.* $H1=OW21347,HDZ11C0,SJPLLRU: Add new num bytes read/written        * 02037500
.*                              fields to accomodate bigger field     * 02050000
.*                              reported by 3580/3590-1           @H1A* 02062500
.* $P1=SAMGT32,HDZ11F0,SJPLGSJ: SAM GREATER THAN 32K SUPPORT. THE     * 02075000
.*                              NEW SMF21LST FIELD WAS NOT FOR THE    * 02087500
.*                              SAM SUPPORT.  IT WAS ADDED IN ORDER   * 02100000
.*                              TO FULFILL CUSTOMER REQUESTS FOR A    * 02112500
.*                              LARGER FIELD TO ACCOMODATE HIGHER     * 02125000
.*                              CAPACITY TAPE DRIVES.             @P1A* 02137500
.* $01=OW40414,HDZ11B0,SJPLGSJ: TOLERATE SAM GREATER THAN 32K SUPPORT.* 02141600
.*                              NO CODE CHANGE IN RELEASE 10.     @01A* 02145700
.*                                                                    * 02150000
.********************************************************************** 02200000
*                                                                       02450000
SMFRCD21 DS    0F        Align to full work boundary               @H1C 02479900
SMF21HDR EQU   *         Header segment for Record 21 (ESV)             02509800
SMF21LEN DS    BL2'0'    Record length                                  02539700
SMF21SEG DS    BL2'0'    Segment descriptor                             02569600
SMF21FLG DS    BL1'0'    System indicator flags                    @L1C 02599500
*                               111. ....   Reserved               @L1A 02629400
*                               ...1 ....   MVS/SP Version 4       @L1A 02659300
*                               .... 1...   MVS/SP Version 3       @L1A 02689200
*                               .... .1..   MVS/SP Version 2       @L1A 02719100
*                               .... ..1.   VS2                    @L1A 02749600
*                               .... ...1   Reserved               @L1A 02773900
SMF21RTY DS    BL1'0'    Record Type '21'                          @L1C 02798200
SMF21TME DS    BL4'0'    TOD, using TIME macro W/BIN. INTVL.            02822500
*                        ...Time, in hundredths of a second,       @L1A 02846800
*                        ...that the record was moved to the SMF   @L1A 02871100
*                        ...buffer.                                @L1A 02895400
SMF21DTE DS    PL4'0000' DATE, signed packed Dec form: 00YYDDDF    @L1C 02919700
*                        ...Date that the record was moved to      @L1A 02944000
*                        ...the SMF buffer, in the form 0CYYDDDF   @L1A 02968300
*                        ...(where F is the sign).                 @L1A 02992600
SMF21SID DS    CL4' '    System ID                                      03016900
SMF21DL  EQU   *         Data portion of record                    @L1A 03041200
SMF21LGH DS    BL2'0'    Length of data portion                         03065500
SMF21VOL DS    CL6' '    Volume serial                                  03089800
SMF21CA  DS    BL2'0'    Device number or device address           @L1C 03114100
SMF21UCB DS    0BL4'0'   UCBTYPE                                   @H1C 03138400
         DS    BL3'0'    First 3 bytes of UCBTYPE                  @H1A 03162700
SMF21DEV DS    BL1       DEVTYP                                    @H1A 03187000
SMF21TR  DS    BL1'0'    Temporary read errors                          03211300
SMF21TW  DS    BL1'0'    Temporary write errors                         03235600
SMF21SIO DS    BL2'0'    No. of Startio's. If SMF21LS is on then   @L1C 03251800
*                        SMF21LST contains the # of Startio's      @P1C 03268000
SMF21PR  DS    BL1'0'    Permanent read errors                          03284200
SMF21PW  DS    BL1'0'    Permanent write errors                         03308500
SMF21NB  DS    BL1'0'    Noise blocks                                   03332800
SMF21ERG DS    BL2'0'    Erase gaps                                     03357100
SMF21CLN DS    BL2'0'    Cleaner actions                                03381400
SMF21DEN DS    BL1'0'    Tape density                                   03405700
SMF21625 EQU   X'D3'       6250                                    @H1A 03430000
SMF21F62 EQU   X'C2'       6250 ON 3424                            @H1A 03454300
SMF21160 EQU   X'C3'       1600                                    @H1A 03478600
SMF21F16 EQU   X'42'       1600 ON 3424                            @H1A 03502900
SMF21800 EQU   X'CB'       800 BPI                                 @H1A 03527200
SMF21780 EQU   X'83'       800 BPI on 7-Track                      @H1A 03551500
SMF21556 EQU   X'43'       556 BPI                                 @H1A 03575800
SMF21200 EQU   X'03'       200 BPI                                 @H1A 03600100
SMF21BLS DS    BL2'0'    Block size.  If SMF21LB is on then             03616700
*                        SMF21LBS contains the block size.         @P1C 03633300
SMF21OFL DS    BL1'0'    DCBOFLG                                        03650000
*                        ... This flag is meaningful only if a     @L1A 03658700
*                        ... DCB was available when the SMF record @L1A 03667400
*                        ... was written.  If any of the bits are  @L1A 03676100
*                        ... on then all bits in this byte are     @L1A 03684800
*                        ... valid.  If all bits are off then      @L1A 03693500
*                        ... there was no DCB available and this   @L1A 03702200
*                        ... byte is meaningless.                  @L1A 03710900
SMF21OUT EQU   X'80'       OUTPUT                                  @H1A 03719600
SMF21RDB EQU   X'40'       INPUT (READ BACKWARD)                   @H1A 03728300
SMF21TUS DS    CL3' '    Tape unit serial                               03737000
SMF21TRF DS    BL2'0'    Temporary read forward errors                  03745700
SMF21TRB DS    BL2'0'    Temporary read backward errors                 03754400
SMF21TWF DS    BL2'0'    Temporary write errors                         03763100
SMF21BR  DS    BL3'0'    Number of 4K bytes read                        03771800
SMF21BW  DS    BL3'0'    Number of 4K bytes written                     03780500
*                                                                  @H1A 03789200
*              The 3590 (BLYTHE) devices report 4 byte fields      @H1A 03797900
*              for the number of bytes read and written.           @H1A 03806600
*              Rather than shoehorn them into the 3 byte           @H1A 03815300
*              fields above (and adding 2 bytes to the             @H1A 03824000
*              length of the record), we will add 2 bytes          @H1A 03832700
*              for flags and another 8 bytes to contain            @H1A 03841400
*              the new counters.  The additional length will       @H1A 03850100
*              be reflected in the length field at the             @H1A 03858800
*              beginning of the record.  Also a new flag           @H1A 03867500
*              will indicate that the new counter has been         @H1A 03876200
*              used.  In addition, SVC 91 will always update       @H1A 03884900
*              the old counters, even for 3590 type devices.       @H1A 03893600
*              If the count is greater than what can be            @H1A 03902300
*              contained in the old counter, the counter           @H1A 03911000
*              will indicate the maximum count.  The new           @H1A 03919700
*              counter will only be used for 3590 type             @H1A 03928400
*              devices.                                            @H1A 03937100
*                                                                  @H1A 03945800
SMF21FL1 DS    BL1'0'    General flag bytes                        @H1A 03954500
SMF21NCT EQU   X'80'     New 4 byte counters used                  @H1A 03963200
SMF21LS  EQU   X'40'     SMF21LST contains the # of Startio's      @P1A 03965100
SMF21LB  EQU   X'20'     SMF21LBS contains the block size          @P1A 03967000
*        EQU   X'10'     Reserved for future use                        03968900
*        EQU   X'08'     Reserved for future use                        03970800
*        EQU   X'04'     Reserved for future use                        03972700
*        EQU   X'02'     Reserved for future use                        03974600
*        EQU   X'01'     Reserved for future use                        03976500
SMF21FL2 DS    BL1'0'    Reserved for future use                   @H1A 03978400
SMF21BRN DS    BL4'0'    Number of 4K bytes read                   @H1A 03980600
SMF21BWN DS    BL4'0'    Number of 4K bytes written                @H1A 03989300
SMF21LST DS    BL4'0'    Number of Start I/Os                      @P1A 03992800
SMF21LBS DS    BL4'0'    Block size                                @P1A 03996300
*                                                                       04000000
         MEND                                                           04050000
         MEXIT                                                   */     04100000
 %SMF21PLS:;                                                            04150000
                                                                        04200000
  DCL 1 SMFRCD21 BASED(SMF21PTR) BDY(WORD),                             04250000
        2 SMF21HDR BDY(WORD),     /* Header portion of record    @L1A*/ 04300000
          4 SMF21LEN FIXED(16),   /* Record length               @L1C*/ 04350000
          4 SMF21SEG FIXED(16),   /* Segment Descriptor          @L1C*/ 04400000
                                                                        04450000
  /*      *-----------------------------------------------*      @H1A*/ 04500000
  /*      *             System Indicator flags            *      @H1A*/ 04550000
  /*      *                                               *      @H1A*/ 04600000
  /*      *               111. .... Reserved              *      @H1A*/ 04650000
  /*      *               ...1 .... MVS/SP Version 4      *      @H1A*/ 04700000
  /*      *               .... 1... MVS/SP Version 3      *      @H1A*/ 04750000
  /*      *               .... .1.. MVS/SP Version 2      *      @H1A*/ 04800000
  /*      *               .... ..1. VS2                   *      @H1A*/ 04850000
  /*      *               .... ...1 Reserved              *      @H1A*/ 04900000
  /*      *                                               *      @H1A*/ 04950000
  /*      *-----------------------------------------------*      @H1A*/ 05000000
          4 SMF21FLG BIT(8),      /* System indicator flags      @L1A*/ 05050000
                                                                        05100000
          4 SMF21RTY FIXED(8),    /* Record Type - '21'          @L1C*/ 05150000
          4 SMF21TME FIXED(31) BDY(HWORD), /* TOD when rcd wrtn  @L1C*/ 05200000
          4 SMF21DTE CHAR(4),     /* Date when rcd written       @L1C*/ 05250000
          4 SMF21SID CHAR(4),     /* System ID fm installation   @L1C*/ 05300000
          4 SMF21DL BDY(WORD,3),  /* Data portion of record      @L1A*/ 05350000
            6 SMF21LGH FIXED(16), /* Length of rest of record           05400000
                                     including this field        @L1A*/ 05450000
            6 SMF21VOL CHAR(6),   /* Volume serial                   */ 05500000
            6 SMF21CA CHAR(2),    /* Device address              @L1C*/ 05550000
            6 SMF21UCB CHAR(4),   /* UCB TYPE                        */ 05600000
              7    *     CHAR(3), /* 3 hi ord bytes UCB devtype  @H1A*/ 05650000
              7 SMF21DEV CHAR(1), /* Low order UCB devtype       @H1A*/ 05700000
            6 SMF21TR FIXED(8),   /* # of temporary read errors      */ 05750000
            6 SMF21TW FIXED(8),   /* # of temporary write errors     */ 05800000
            6 SMF21SIO FIXED(16), /* # of start I/O's.  If       @L1C   05825000
                                     SMF21LS is on then SMF21LST        05850000
                                     contains the # of Startio's @P1C*/ 05875000
            6 SMF21PR FIXED(8),   /* # of permanent read errors      */ 05900000
            6 SMF21PW FIXED(8),   /* # of permanent write errors     */ 05950000
            6 SMF21NB FIXED(8),   /* # of noise blocks               */ 06000000
            6 SMF21ERG FIXED(16) BDY(WORD,4), /* # of erase gaps     */ 06050000
            6 SMF21CLN FIXED(16) BDY(WORD,2), /* # of cleaner actions*/ 06100000
            6 SMF21DEN FIXED(8),  /* Tape density code               */ 06150000
            6 SMF21BLS FIXED(16), /* Blk size. If SMF21LB is on         06175000
                                     then SMF21LBS contains the         06200000
                                     block size.                 @P1C*/ 06225000
            6 SMF21OFL BIT(8),    /* DCBOFLG.  This flag is             06250000
                                     meaningful only if a DCB was       06300000
                                     available when the SMF             06350000
                                     record was written.  If any        06400000
                                     of the bits are on then all        06450000
                                     bits in this byte are valid.       06500000
                                     If all bits are off then           06550000
                                     there was no DCB available         06600000
                                     and this byte is                   06650000
                                     meaningless.                @L1A*/ 06700000
              7 SMF21OUT BIT(1),  /* Output tape                 @H1A*/ 06750000
              7 SMF21RDB BIT(1),  /* Input tape (READ BACKWARD)  @H1A*/ 06800000
              7    *     BIT(6),  /* Reserved                    @H1A*/ 06850000
            6 SMF21TUS CHAR(3),   /* Tape unit serial                */ 06900000
            6 SMF21TRF FIXED(16), /* Temp read forward errors    @L1C*/ 06950000
            6 SMF21TRB FIXED(16), /* Temp read backward errors   @L1C*/ 07000000
            6 SMF21TWF FIXED(16), /* Temporary write errors          */ 07050000
            6 SMF21BR CHAR(3),    /* Num 4K bytes read           @L1C*/ 07100000
            6 SMF21BW CHAR(3),    /* Num 4K bytes written        @L1C*/ 07150000
                                                                        07200000
            /*********************************************************/ 07250000
            /*                                                       */ 07300000
            /*   The 3590 (BLYTHE) devices report 4 byte         @H1A*/ 07350000
            /*   fields for the number of bytes read and         @H1A*/ 07400000
            /*   written.  Rather than shoehorn them into the    @H1A*/ 07450000
            /*   3 byte fields above (and adding 2 bytes to      @H1A*/ 07500000
            /*   the length of the record), we will add 2        @H1A*/ 07550000
            /*   bytes for flags and another 8 bytes to          @H1A*/ 07600000
            /*   contain the new counters.  The additional       @H1A*/ 07650000
            /*   length will be reflected in the length field    @H1A*/ 07700000
            /*   at the beginning of the record.  Also a new     @H1A*/ 07750000
            /*   flag will indicate that the new counter has     @H1A*/ 07800000
            /*   been used.  In addition, SVC 91 will always     @H1A*/ 07850000
            /*   update the old counters, even for 3590 type     @H1A*/ 07900000
            /*   devices.  If the count is greater than what     @H1A*/ 07950000
            /*   can be contained in the old counter, the        @H1A*/ 08000000
            /*   counter will indicate the maximum count.        @H1A*/ 08050000
            /*   The new counter will only be used for 3590      @H1A*/ 08100000
            /*   type devices.                                   @H1A*/ 08150000
            /*                                                       */ 08200000
            /*********************************************************/ 08250000
                                                                        08300000
            6 SMF21FL1   BIT(8),  /* General flag bytes          @H1A*/ 08326900
              7 SMF21NCT BIT(1),  /* New 4 byte counters used    @H1A*/ 08353800
              7 SMF21LS  BIT(1),  /* SMF21LST contains the              08380700
                                     startio count               @P1A*/ 08407600
              7 SMF21LB  BIT(1),  /* SMF21LBS contains the              08434500
                                     block size                  @P1A*/ 08461400
              7    *     BIT(5),  /*   Reserved                  @H1A*/ 08488300
            6 SMF21FL2  CHAR(1),  /* Reserved                    @H1A*/ 08515200
            6 SMF21BRN  CHAR(4),  /* Num 4K bytes read (3590)    @H1A*/ 08542100
            6 SMF21BWN  CHAR(4),  /* Num 4K bytes written (3590) @H1A*/ 08569000
            6 SMF21LST  CHAR(4),  /* Number of Start I/Os        @P1A*/ 08595900
            6 SMF21LBS  CHAR(4);  /* Block size                  @P1A*/ 08622800
                                                                        08650000
          /*   Density constants for use with SMF21DEN field     @H1A*/ 08700000
                                                                        08750000
 DECLARE                           /*                            @H1A*/ 08800000
  SMF21625 BIT(8) CONSTANT('D3'X), /* 6250 DENSITY               @H1A*/ 08850000
  SMF21F62 BIT(8) CONSTANT('C2'X), /* 6250 ON 3424               @H1A*/ 08900000
  SMF21160 BIT(8) CONSTANT('C3'X), /* 1600 DENSITY               @H1A*/ 08950000
  SMF21F16 BIT(8) CONSTANT('42'X), /* 1600 ON 3424               @H1A*/ 09000000
  SMF21800 BIT(8) CONSTANT('CB'X), /* 800 BPI                    @H1A*/ 09050000
  SMF21780 BIT(8) CONSTANT('83'X), /* 800 BPI ON 7-TRACK         @H1A*/ 09100000
  SMF21556 BIT(8) CONSTANT('43'X), /* 556 BPI                    @H1A*/ 09150000
  SMF21200 BIT(8) CONSTANT('03'X); /* 200 BPI                    @H1A*/ 09200000
