*        %GOTO SMF69PLS;      /*                                        00050000
         MACRO                                                          00100000
&NAME    IGGSMF69                                                       00150000
.********************************************************************** 00200000
.*                                                                    * 00250000
.*   MACRO NAME = IGGSMF69                                            * 00300000
.*                                                                    * 00350000
.*PROPRIETARY V3 STATEMENT                                            * 00400000
.*LICENSED MATERIALS - PROPERTY OF IBM                                * 00450000
.*"RESTRICTED MATERIALS OF IBM"                                       * 00500000
.*5695-DF1                                                            * 00550000
.*(C) COPYRIGHT 1993  IBM CORP.                                       * 00600000
.*END PROPRIETARY V3 STATEMENT                                        * 00650000
.*                                                                    * 00750000
.*                                                                    * 00800000
.* This is the macro that includes the Assembler and PLS declarations * 00850000
.* for the SMF Type 69 Record.                                        * 00900000
.*                                                                    * 00950000
.* Method of Access:                                                  * 01000000
.*   ASM - User includes Record Type on IFASMFR macro invocation      * 01050000
.*         Examples:                                                  * 01100000
.*         - IFASMFR  69                                              * 01150000
.*         - IFASMFR (...,69,...)                                     * 01200000
.*                                                                    * 01250000
.*  PL/S - User defines a macro variable IFAR69 where 69=Record type  * 01300000
.*         being requested, INCLUDEs the IFASMFR macro and declares   * 01350000
.*         the basing pointer for the record mapping.                 * 01400000
.*         Example:                                                   * 01450000
.*         - %IFAR69 = 'YES'                                          * 01500000
.*           DCL SMF69PTR PTR(31)                                     * 01550000
.*           %INCLUDE SYSLIB(IFASMFR)                                 * 01600000
.*                                                                    * 01650000
.*                                                                    * 01700000
.* CHANGE ACTIVITY =                                                  * 01750000
.*                                                                    * 01800000
.* NOTE: All record mapping changes must be forwarded to the SMF      * 01850000
.*       writer for inclusion in the SMF Manual                       * 01900000
.*                                                                    * 01950000
.* A - Define new macro for record mapping                        @00A* 02000000
.*                                                                    * 02050000
.* $00=.......,.......,......,....: DFP Record Mappings Transfer  @00A* 02100000
.*                                                                    * 02150000
.*                                                                    * 02200000
.********************************************************************** 02250000
*                                                                       02300000
* THIS DSECT DEFINES THE FORMAT FOR RECORD TYPE 69 (VSAM DATA           02350000
* SPACE DEFINED OR DELETED).  RECORD LENGTH IS 102 BYTES.               02400000
*                                                                       02450000
         DS    0F                  ALIGN TO FULLWORD BOUNDARY           02500000
SMFRCD69 EQU   *                   HEADER SEGMENT                       02550000
SMF69LEN DS    BL2'0'              RECORD LENGTH                        02600000
SMF69SEG DS    BL2'0'              SEGMENT DESCRIPTOR                   02650000
SMF69FLG DC    BL1'0'              HEADER FLAG BYTE                     02700000
SMF69RTY DC    BL1'0'              RECORD TYPE 69                       02750000
SMF69TME DC    BL4'0'              TOD, USING FORMAT FROM TIME MACRO    02800000
*                                  WITH BIN INTERVAL                    02850000
SMF69DTE DC    PL4'0000'           DATE IN PACKED DECIMAL FORM          02900000
*                                  00YYDDDF (F IS THE SIGN)             02950000
SMF69SID DC    CL4' '              SYSTEM IDENTIFICATION                03000000
SMF69JBN DC    CL8' '              JOBNAME                              03050000
SMF69RST DC    BL4'0'              READER START TIME IN 100THS SECONDS  03100000
SMF69RSD DC    PL4'0000'           READER START DATE                    03150000
SMF69UIF DC    CL8' '              USER IDENTIFICATION FIELD            03200000
SMF69CUU DC    BL2'0'              DEVICE NUMBER                        03250000
SMF69IND DC    BL2'0'              MODULE/SPINDLE ID                    03300000
SMF69NDS DC    BL2'0'              NUMBER OF EXTENT ON VOLUME           03350000
SMF69NUC DC    BL2'0'              NUMBER UNALLOCATED CYLS ON VOLUME    03400000
SMF69NUT DC    BL2'0'              NUMBER UNALLOCATED TRKS. ON          03450000
*                                  VOLUME-NOT IN UNAL CYL'S             03500000
SMF69LNC DC    BL2'0'              LARGEST # FREE CONTG. CYLS           03550000
SMF69LNT DC    BL2'0'              LARGEST # FREE CONTG. TRKS           03600000
SMF69CNM DC    CL44' '             CATALOG NAME                         03650000
SMF69VSR DC    CL6' '              VOLUME SERIAL                        03700000
*                                                                       03750000
         MEND                                                           03800000
         MEXIT            */                                            03850000
 %SMF69PLS:;                                                            03900000
                                                                        03950000
    DCL 1 SMFRCD69 BASED(SMF69PTR) BDY(WORD),                           04000000
                                                                        04050000
 /* RECORD TYPE 69 - VSAM DATA SPACE DEFINED OR DELETED              */ 04100000
 /* WRITTEN WHEN A DATA SPACE IS DEFINED OR DELETED                  */ 04150000
                                                                        04200000
         3 SMF69LEN FIXED(15),    /* RDW RECORD LWNGTH               */ 04250000
         3 SMF69SEG FIXED(15),    /* RDW SEGMENT DESCRIPTOR          */ 04300000
         3 SMF69FLG BIT(8),       /* OPERATING ENVIRONMENT           */ 04350000
         3 SMF69RTY FIXED(8),     /* RECORD TYPE 69                  */ 04400000
         3 SMF69TME FIXED(31) BDY(HWORD), /* TOD RECORD WRITTEN      */ 04450000
         3 SMF69DTE CHAR(4),      /* DATE RECORD WRITTEN             */ 04500000
         3 SMF69SID CHAR(4),      /* SYSTEM ID FROM INSTALLATION     */ 04550000
         3 SMF69JBN CHAR(8),      /* JOB NAME                        */ 04600000
         3 SMF69RST FIXED(31) BDY(HWORD), /* READER START TOD(.01 SEC)*/04650000
         3 SMF69RSD CHAR(4),      /* READER START DATE               */ 04700000
         3 SMF69UIF CHAR(8),      /* USER IDENTIFICATION FIELD       */ 04750000
         3 SMF69CUU CHAR(2),      /* DEVICE NUMBER                   */ 04800000
         3 SMF69IND CHAR(2),      /* MODULE/SPINDLE ID               */ 04850000
         3 SMF69NDS FIXED(15),    /* # OF EXTENTS ON VOLUME          */ 04900000
         3 SMF69NUC FIXED(15),    /* # UNALLOCATED CYLS ON VOLUME    */ 04950000
         3 SMF69NUT FIXED(15),    /* # UNAL TRKS ON VOL-NOT IN UNAL     05000000
                                     CYLS                            */ 05050000
         3 SMF69LNC FIXED(15),    /* LARGEST # FREE CONTG. CYLS      */ 05100000
         3 SMF69LNT FIXED(15),    /* LARGEST # FREE CONTG. TRKS      */ 05150000
         3 SMF69CNM CHAR(44),     /* CATALOG NAME                    */ 05200000
         3 SMF69VSR CHAR(6);      /* VOLUME SERIAL NUMBER            */ 05250000
                                                                        05300000
