* %GOTO IGWSMF_1;  /*                                                   00003800
         MACRO                                                          00007600
&NAME    IGWSMF &SMF42_01=NO,&SMF42_02=NO,&SMF42_03=NO,&SMF42_04=NO,   X00011400
               &SMF42_05=NO,&SMF42_06=NO,&SMF42_09=NO,&SMF42_0B=NO,    X00012000
               &SMF42_0F=NO,&SMF42_0G=NO,&SMF42_0H=NO,           @P1C  X00012600
               &SMF42_0I=NO,&SMF42_0J=NO                         @11C*/ 00017100
* %IGWSMF_1:;                                                           00019000
*/* START OF SPECIFICATIONS ******************************************* 00022800
*   $MAC(IGWSMF) COMP(DF104):                                         * 00026600
*01* MACRO NAME: IGWSMF                                               * 00030400
*01* DESCRIPTIVE NAME: SMF Record Type 42 Definition                  * 00034200
*                                                                     * 00038000
*                                                                     * 00039900
*    STATUS: MVS/DFSMSdfp 1.3.0                                       * 00041800
*                                                                     * 00045600
*PROPRIETARY V3 STATEMENT                                             * 00048300
*LICENSED MATERIALS - PROPERTY OF IBM                                 * 00051000
*"RESTRICTED MATERIALS OF IBM"                                        * 00053700
*5695-DF1                                                             * 00056400
*(C) COPYRIGHT 1989,1994  IBM CORP.                                   * 00059100
*END PROPRIETARY V3 STATEMENT                                         * 00061800
*                                                                     * 00064600
*    FUNCTION: Map the following SMF record type 42 subtypes:         * 00068400
*                                                                     * 00072200
*                                                                     * 00074100
*      Subtype 1 - BMF totals section for analysis of overall BMF     * 00076000
*                  performance.  One storage class summary section    * 00079800
*                  for each storage class.                            * 00083600
*                                                                     * 00087400
*      Subtype 2 - One section for each cache control unit (3990-3)   * 00091200
*                  having at least one SMS managed device attached.   * 00095000
*                  One section for each SMS managed volume attached   * 00098800
*                  to a 3990-3 control unit.                          * 00102600
*                                                                     * 00106400
*      Subtype 3 - For SMS Operational Services event audit records   * 00110200
*                  written each time the SMS configuration changes    * 00114000
*                  when 1) operator issues VARY SMS, or 2) ISMF       * 00117800
*                  'ACTIVATE' or activate via SETSMS, or 3) ENF       * 00121600
*                  event occurred after VARY of SMS managed volume.   * 00125400
*                                                                     * 00129200
*      Subtype 4 - A subtype 4 record will be written for    @OY66824 * 00133000
*                  System Data Mover session statistics for a@OY66824 * 00136800
*                  Concurrent Copy session or for an Extended@OY66824 * 00140600
*                  Sequential Data Set when interfacing with @OY66824 * 00144400
*                  the backup program.                       @OY66824 * 00148200
*                                                                     * 00152000
*      Subtype 5 - Storage Class Response Time Section.          @L1A * 00155800
*                  Contains I/O statistics by storage class.     @L1A * 00159600
*                                                                     * 00163400
*      Subtype 6 - Data Set by Job section.                      @L1A * 00167200
*                  Contains I/O statistics by data set.          @L1A * 00171000
*                  If recorded at end of SMF interval, one       @L1A * 00174800
*                  record contains data for all open data sets   @L1A * 00178600
*                  in an address space.                          @L1A * 00182400
*                  If recorded during Close, one record contains @L1A * 00186200
*                  data for all concatenated data sets.          @L1A * 00190000
*                                                                     * 00193800
*                    ______________________________________      @L1A * 00197600
*                   | SMF42 header                         |     @L1A * 00201400
*                   |______________________________________      @L1A * 00205200
*                   | SMF42 subtype 6 header section       |     @L1A * 00209000
*                   |______________________________________      @L1A * 00212800
*                   | SMF42 product section                |     @L1A * 00216600
*                   |______________________________________      @L1A * 00220400
*                   | SMF42 subtype 6 job header section   |     @L1A * 00224200
*                   |______________________________________      @L1A * 00228000
*                   | SMF42 subtype 6 DS #1 header section |     @L1A * 00231800
*                   |______________________________________      @L1A * 00235600
*                   | SMF42 subtype 6 DS #1 I/O stats      |     @L1A * 00239400
*                   |______________________________________      @L1A * 00243200
*                   | SMF42 subtype 6 DS #2 header section |     @L1A * 00247000
*                   |______________________________________      @L1A * 00250800
*                   | SMF42 subtype 6 DS #2 I/O stats      |     @L1A * 00254600
*                   |______________________________________      @L1A * 00258400
*                                                                     * 00258800
*      Subtype  7 - Used by NFS                                  @10A * 00259200
*                                                                     * 00259600
*      Subtype  8 - Used by NFS                                  @10A * 00260000
*                                                                     * 00260400
*      Subtype  9 - A subtype 9 record will be written for       @P1C * 00260500
*                   B37,D37 or E37 abends to document            @P1A * 00260600
*                   information such as jobnme, data set name,   @P1A * 00260700
*                   volume serial number, number of extents      @P1A * 00260800
*                   on the volume, secondary allocation amount   @P1A * 00260900
*                   etc.                                         @P1A * 00261000
*                                                                     * 00261200
*      Subtype 10 - Available                                    @10A * 00261700
*                                                                     * 00262200
*      Subtype 11 - A subtype 11 record will be written for      @07A * 00262900
*                   System Data Mover session statistics for     @07A * 00263600
*                   Extended Remote Copy (XRC) sessions when     @07A * 00264300
*                   the global SMF interval expires.             @07A * 00265000
*                                                                     * 00265200
*      Subtype 12 - Available                                    @10A * 00265400
*                                                                     * 00265600
*      Subtype 13 - Available                                    @10A * 00265800
*                                                                     * 00266000
*      Subtype 14 - Available                                    @10A * 00266200
*                                                                     * 00266400
*      Subtype 15 - Storage class MSR summary                    @10A * 00266600
*                                                                     * 00266800
*      Subtype 16 - Data set MSR summary                         @10A * 00267000
*                                                                     * 00267200
*      Subtype 17 - Coupling facility lock structure summary     @10A * 00267400
*                                                                     * 00267600
*      Subtype 18 - Coupling facility cache partition summary    @10A * 00267800
*                                                                     * 00268000
*      Subtype 19 - Local Buffer Manager LRU Activity summary    @11A * 00268100
*                                                                     * 00268200
*    NOTES:                                                           * 00269800
*                                                                     * 00273600
*      DEPENDENCIES:                                                  * 00277400
*      RESTRICTIONS: None                                             * 00281200
*                                                                     * 00285000
*    MACRO:                                                           * 00288800
*                                                                     * 00292600
*      PROCESSOR: PLAS                                                * 00296400
*      DISTRIBUTION LIBRARY: PLSMACS                                  * 00300200
*      ATTRIBUTES:                                                    * 00304000
*                                                                     * 00307800
*        This macro produces a PLAS structure which describes the     * 00311600
*        format of the SMF record type 42.                            * 00315400
*                                                                     * 00319200
*    EXIT NORMAL:                                                     * 00323000
*                                                                     * 00326800
*      RETURN CODE: 0                                                 * 00330600
*      No errors detected                                             * 00334400
*                                                                     * 00338200
*    EXIT ERRORS:                                                     * 00342000
*                                                                     * 00345800
*        No errors will be detected by this macro.                    * 00349600
*                                                                     * 00353400
*    EXTERNAL REFERENCES:                                             * 00357200
*                                                                     * 00361000
*      MACROS:                                                        * 00364800
*        None                                                         * 00368600
*                                                                     * 00372400
*    CHANGE ACTIVITY:                                                 * 00376200
*   $L0=EVNTAUD,HDP3320,871123,STLRLF: SMF Event Audit Records        * 00380000
*   $01=OY36584,HDP3320,901008,SJDAB: Make product sect. end word bdy * 00383800
*   $02=OY48288,HDP3330,911022,SJPLMW: Change header to only include  * 00387600
*                      the subtype triplets for the selected subtype  * 00391400
*                      to be written with the SMF record. Fields in   * 00395200
*                      subtype 1 were changed from EBCDIC 8 byte      * 00399000
*                      fields to binary 4 byte fields. New fields     * 00402800
*                      were added to subtype 3.                       * 00406600
*   $L1=DCME,JDZ1110,920121,SJPLMW: Dynamic Cache Mgmt support        * 00410400
*   $03=OY62455,JDZ1110,930517,SJPLMM: Macro not shipped w/110        * 00412800
*   $04=OY66824,JDZ1110,930915,TUCKAD: Add subtype 4                  * 00415200
*   $RT=I/O DELAY,HDZ11B0,931130,SJPLJB: I/O delay statistics         * 00417700
*   $RT=IODELAY,HDZ11B0,931015,SJPLJB:  I/O Delay Statistics     @RTA * 00418700
*   Duplicate symbol name                                     @OW00573* 00419700
*   Stratis support                                           @OW00159* 00420700
*   $07=OW08476,JDZ1110,940929,TUCKAD: Add Subtype 11             @07A* 00421200
*   Changed 1Cl0008 to 1CL0008.                               @OW09203* 00421500
*   $DM=RLS CMM,HDZ11C0,950106,      : Add Subtypes 15,16,17,18   @10A* 00422000
*   $10=OW21970,HDZ11C0,08/06/96,SJPLMKD: Update sub-type 15,16,  @10A* 00422200
*   17,18 to add thread stats and new locking fields.             @10A* 00422400
*   $08=OW16041,HDZ11C0,10/04/95,SJPLRMS: Add bit in Subtype 2 to @08A* 00422600
*   indicate the statistics are for D/T3990-6 enhanced mode.      @08A* 00423600
*   $09=OW16125,HDZ11C0,10/04/95,SJPLRMS: Add GMT offset in sub-  @09A* 00423900
*   type 6 to allow correct calculation of local time.            @09A* 00424200
*   $P1=SMST42,HDZ11D0.103096,SJPLJAL: Add Subtype 9              @P1A* 00424300
*   $P1=OW20866,HDZ11C0,06/06/96,SJPLJAB: Add Volume statistics   @P1A* 00424400
*   to the Subtype 5 record and additional data set flags to the  @P1A* 00424500
*   Subtype 6 record.                                             @P1A* 00424600
*   $11=OW22419,HDZ11C0,10/03/96,SJPLMKD: Add sub-type 19 and     @11A* 00424700
*                                         modify sub-type 18.     @11A* 00424900
*   $P2=K140182,HDZ11D0,12/31/96,SJPLJAL: Remove fld: S42SGNME    @P2A* 00425000
*   $12=OW26451,HDZ11D0,970418,SJPLMV: add two new fields to      @12A* 00425100
*   subtype 6, maximum I/O response and service time by dataset   @12A* 00425200
*   $13=OW30233,HDZ11D0,971103,SJPLGEC: CORRECT ASSEMBLY ERRORS   @13A* 00425300
*   $14=OW28921,HDZ11C0,971210,TUCGEM: Add Planned outage         @14A* 00425400
*   $15=OW32781,HDZ11D0,980414,SJPLGEC: Dup S42DSN label for      @15A* 00426200
*                                       record type 6 and 9       @16A* 00426600
*   $16=OW33202,HDZ11D0,980508,SJPLMKD: Dup S42SRH label for      @16A* 00427000
*                                       record type 1             @16A* 00427400
*   $17=OW35542,HDZ11D0,981020,SJPLJAL: MACRO CONTROL STATEMENT   @17A* 00427500
*                                       INCORRECTLY COMMENTED OUT @17A* 00427600
*   $18=OW38073,HDZ11E0,990309,SJPLRAV: BMF cache metrics         @18A* 00427800
*   $19=OW34238,HDZ11E0,981203,SJPLMV:  Fibre Channel Support     @19A* 00428000
*   $21=OW39785,HDZ11E0,990528,SJPLDLM: Update MMF for CDATA      @21A* 00428100
*   $20=OW41407,HDZ11C0,990819,TUCRNC: Four digit device numbers  @20A* 00428200
*   $22=OW48124,HDZ11C0,010209,TUCDRB: Remove assembler comment   @22A* 00428240
* END OF SPECIFICATIONS **********************************************/ 00428300
* %GOTO IGWSMF_2;                         /*                            00428600
*                                                                       00429400
*                                                                       00433200
*                                                                       00437000
*                                                                       00440800
*   -----------------------------------------------------------------   00444600
*     Header for SMF record type 42                                     00448400
*   -----------------------------------------------------------------   00452200
*                                                                       00456000
*                                                                       00459800
SMF42    DSECT ,                                                        00463600
SMF42BAS DS    0D        SMF42BAS is the basing expr.                   00467400
SMF42RCL DS    1FL2      Record Length                                  00471200
SMF42SGD DS    1FL2      Segment Descriptor (RDW) -- 0 if record is    *00475000
                         not spanned                                    00478800
SMF42FLG DS    0BL1      System indicator flags                         00482600
SMF42FSI EQU   X'80'     When set=subsystem id follows system id        00486400
SMF42FSU EQU   X'40'     When set = subtypes are used                   00490200
SMF42FXA EQU   X'04'     When set = MVS/XA (SMF enters)                 00494000
SMF42FS2 EQU   X'02'     When set = VS2 (SMF enters)                    00497800
SMF42FS1 EQU   X'01'     When set = VS1 (SMF enters)                    00501600
         ORG   SMF42FLG+X'00000001'                                     00505400
SMF42RTY DS    1FL1      Record type: 42 (X'2A')                        00509200
SMF42TME DS    1FL4                                                     00513000
SMF42DTE DS    1CL0004   Record written date (by SMF)                   00516800
SMF42SID DS    1CL0004   System identification (by SMF)                 00520600
SMF42SSI DS    1CL0004   Subsystem Id                                   00524400
SMF42STY DS    1FL2      Record subtype                                 00528200
SMF42NT  DS    1FL2      Number of triplets (optional)                  00532000
         DS    1FL2      Reserved (optional)                            00535800
*                                                                       00539600
*   -----------------------------------------------------------------   00543400
*    Product section triplet                                            00547200
*   -----------------------------------------------------------------   00551000
*                                                                       00554800
*                                                                       00558600
SMF42OPS DS    1FL4      Offset to product section                      00562400
SMF42LPS DS    1FL2      Length of product section                      00566200
SMF42NPS DS    1FL2      Number of product sections                     00570000
*                                                                       00573800
*   -----------------------------------------------------------------   00577600
*    Header must end on word boundary                                   00581400
*   -----------------------------------------------------------------   00585200
*                                                                       00589000
*                                                                       00592800
SMF42END DS    0C        1st data section triplet                       00596600
SMF42_LEN EQU  *-SMF42                                                  00600400
*                                                                       00604200
*   -----------------------------------------------------------------   00608000
*    SMF42 subtype header sections.                                     00611800
*                                                                       00615600
*    Only include the subtype triplet(s) for the selected subtype.      00619400
*   -----------------------------------------------------------------   00623200
*                                                                       00627000
*                                                                       00630800
*                                                                       00634600
         AIF   ('&SMF42_01' EQ 'NO').SKIP_01                            00638400
*                                                                       00642200
*   -----------------------------------------------------------------   00646000
*    SMF42 subtype 1 header section (BMF Statistics)                    00649800
*   -----------------------------------------------------------------   00653600
*                                                                       00657400
*                                                                       00661200
SMF42S1  DSECT ,                                                        00665000
SMF42BMO DS    1FL4      Offset to BMF totals section                   00668800
SMF42BML DS    1FL2      Length of BMF totals section                   00672600
SMF42BMN DS    1FL2      Number of BMF totals sections                  00676400
SMF42SCO DS    1FL4      Offset to storage class summary section        00680200
SMF42SCL DS    1FL2      Length of storage class summary section        00684000
SMF42SCN DS    1FL2      Number of storage class summary sections       00687800
SMF42L1  EQU   16        Length of subtype 1 header section             00691600
SMF42S1_LEN EQU *-SMF42S1                                               00695400
.SKIP_01 ANOP                                                           00699200
*                                                                       00703000
*                                                                       00706800
*                                                                       00710600
*                                                                       00714400
         AIF   ('&SMF42_02' EQ 'NO').SKIP_02                            00718200
*                                                                       00722000
*   -----------------------------------------------------------------   00725800
*    SMF42 subtype 2 header section (Cache summary)                     00729600
*   -----------------------------------------------------------------   00733400
*                                                                       00737200
*                                                                       00741000
SMF42S2  DSECT ,                                                        00744800
SMF42CUO DS    1FL4      Offset to control unit cache section           00748600
SMF42CUL DS    1FL2      Length of control unit cache section           00752400
SMF42CUN DS    1FL2      Number of control unit cache sections          00756200
SMF42VLO DS    1FL4      Offset to volume section                       00760000
SMF42VLL DS    1FL2      Length of volume section                       00763800
SMF42VLN DS    1FL2      Number of volume sections                      00767600
SMF42L2  EQU   16        Length of subtype 2 header section             00771400
SMF42S2_LEN EQU *-SMF42S2                                               00775200
.SKIP_02 ANOP                                                           00779000
*                                                                       00782800
*                                                                       00786600
*                                                                       00790400
*                                                                       00794200
         AIF   ('&SMF42_03' EQ 'NO').SKIP_03                            00798000
*                                                                       00801800
*   -----------------------------------------------------------------   00805600
*    SMF42 subtype 3 header section (Config. audit)                     00809400
*   -----------------------------------------------------------------   00813200
*                                                                       00817000
*                                                                       00820800
SMF42S3  DSECT ,                                                        00824600
SMF42EAO DS    1FL4      Offset to event audit section                  00828400
SMF42EAL DS    1FL2      Length of event audit section                  00832200
SMF42EAN DS    1FL2      Number of event audit sections                 00836000
SMF42L3  EQU   8         Length of subtype 3 header section             00839800
SMF42S3_LEN EQU *-SMF42S3                                               00843600
.SKIP_03 ANOP                                                           00847400
*                                                                       00851200
*                                                                       00855000
*                                                                       00858800
*                                                                       00862600
         AIF   ('&SMF42_04' EQ 'NO').SKIP_04                 @OY66824   00866400
*                                                                       00870200
*   -----------------------------------------------------------------   00874000
*    SMF42 subtype 4 header section (System Data Mover statistics)      00877800
*                   (Concurrent Copy Session (CC) statistics or         00881600
*                   Extended Physical Data Set (EXT)         @OY66824   00885400
*                   statistics)                              @OY66824   00889200
*   -----------------------------------------------------------------   00893000
*                                                                       00896800
*                                                                       00900600
SMF42S4 DSECT ,                                              @OY66824   00904400
SMF42CCO DS    1FL4      Offset to CC statistics             @OY66824   00908200
SMF42CCL DS    1FL2      Length of CC statistics             @OY66824   00912000
SMF42CCN DS    1FL2      Number of CC sessions               @OY66824   00915800
SMF42EXO DS    1FL4      Offset to EXT statistcs             @OY66824   00919600
SMF42EXL DS    1FL2      Length of EXT statitics             @OY66824   00923400
SMF42EXN DS    1FL2      Number of EXT sessions              @OY66824   00927200
SMF42L4  EQU   16        Length of subtype 4 header section  @OY66824   00931000
SMF42S4_LEN EQU *-SMF42S4                                    @OY66824   00934800
.SKIP_04 ANOP                                                @OY66824   00938600
*                                                                       00942400
*                                                                       00946200
*                                                                       00950000
*                                                                       00953800
         AIF   ('&SMF42_05' EQ 'NO').SKIP_05                            00957600
*                                                                       00961400
*   -----------------------------------------------------------------   00965200
*    SMF42 subtype 5 header section                                     00969000
*     (Storage class response time statistics)                          00972800
*   -----------------------------------------------------------------   00976600
*                                                                       00980400
*                                                                       00984200
SMF42S5  DSECT ,                                                        00988000
SMF42SRO DS    1FL4      Offset to storage class response time section  00991800
SMF42SRL DS    1FL2      Length of storage class response time section  00995600
SMF42SRN DS    1FL2      Number of storage class response time         *00999400
                         sections                                       01003200
SMF42VHO DS    1FL4      Offset to volume header section          @P1A  01004700
SMF42VHL DS    1FL2      Length of volume header section          @P1A  01006200
SMF42VHN DS    1FL2      Number of volume header sections (=1)    @P1A  01007700
SMF42L5  EQU   *-SMF42S5 Length of subtype 5 header section       @P1C  01009200
SMF42S5_LEN EQU *-SMF42S5                                               01010800
.SKIP_05 ANOP                                                           01014600
*                                                                       01018400
*                                                                       01022200
*                                                                       01026000
*                                                                       01029800
         AIF   ('&SMF42_06' EQ 'NO').SKIP_06                            01033600
*                                                                       01037400
*   -----------------------------------------------------------------   01041200
*    SMF42 subtype 6 header section                                     01045000
*     (job/dataset statistics)                                          01048800
*   -----------------------------------------------------------------   01052600
*                                                                       01056400
*                                                                       01060200
SMF42S6  DSECT ,                                                        01064000
SMF42JHO DS    1FL4      Offset to job header section                   01067800
SMF42JHL DS    1FL2      Length of job header section                   01071600
SMF42JHN DS    1FL2      Number of job header sections                  01075400
SMF42L6  EQU   8         Length of subtype 6 header section             01079200
SMF42LN  EQU   36        Length of beginning SMF42 header section       01083000
SMF42S6_LEN EQU *-SMF42S6                                               01086800
.SKIP_06 ANOP                                                           01090600
*                                                                       01090700
*                                                                       01090800
*                                                                       01090900
         AIF   ('&SMF42_09' EQ 'NO').SKIP_09                     @P1A   01091000
*                                                                       01091100
*  ------------------------------------------------------------- @P1A   01091200