*        %GOTO PLSETD;   /*                                             00050000
         MACRO                                                          00100000
&NAME    IHAETD   &LIST=NO,&FORMAT=0                                    00150000
**/                                                                     00200000
*%PLSETD : ;                                                            00250000
*/********************************************************************/ 00300000
*/*                                                                  */ 00350000
*/*01*  MACRO NAME = IHAETD                                          */ 00487400
*/*                                                                  */ 00531100
*/*01*  DESCRIPTIVE NAME =  ENTRY TABLE (ET) DESCRIPTION             */ 00574800
*/*                                                                  */ 00618600
*/*01*  MACDATE = 06/25/92                                           */ 00668600
*/*                                                                  */ 00900000
*/*01*  COPYRIGHT =                                              @L1C*/ 00950000
*/*      5685-001                                                    */ 01000000
*/*      THIS MACRO IS "RESTRICTED MATERIALS OF IBM"                 */ 01050000
*/*      (C) COPYRIGHT IBM CORP. 1980, 1988.                         */ 01100000
*/*      LICENSED MATERIALS - PROPERTY OF IBM                        */ 01150000
*/*                                                                  */ 01300000
*/*01*  STATUS =  HBB4430                                        @L1C*/ 01316600
*/*                                                                  */ 01333200
*/*01*  FUNCTION =                                                   */ 01350000
*/*      DESCRIBES THE ENTRIES TO BE ASSIGNED IN THE ENTRY TABLE     */ 01400000
*/*      CREATED BY THE ET CREATE SERVICE ROUTINE.                   */ 01450000
*/*                                                                  */ 01500000
*/*01*  METHOD OF ACCESS                                             */ 01550000
*/*      BAL - A DSECT IS PRODUCED                                   */ 01556000
*/*            PERFORM USING ON ETD OR ETDELE.                       */ 01562000
*/*            THE OLD FORMAT ETD CAN BE OBTAINED BY CODING:         */ 01574000
*/*               IHAETD FORMAT=0      (THE DEFAULT FORMAT)          */ 01580000
*/*                                                                  */ 01586000
*/*            THE EXTENDED FORM IS OBTAINED BY CODING:              */ 01586500
*/*               IHAETD FORMAT=1                                    */ 01587000
*/*                                                                  */ 01587500
*/*      BAL LISTING -  SPECIFY LIST=YES ON MACRO CALL               */ 01587600
*/*                                                                  */ 01587700
*/*      PL/AS - ETD IS DECLARED AS A BASED STRUCTURE ON ETDPTR      */ 01588000
*/*             ETDELE IS DECLARED AS A BASED STRUCTURE ON ETDEPTR   */ 01588500
*/*            THE OLD FORMAT ETD CAN BE OBTAINED BY CODING:         */ 01590000
*/*               %ETDFORM='0'         (THE DEFAULT FORMAT)          */ 01590500
*/*               %INCLUDE SYSLIB(IHAETD)                            */ 01591000
*/*                                                                  */ 01591500
*/*            THE EXTENDED FORM IS OBTAINED BY CODING:              */ 01592000
*/*               %ETDFORM='1'                                       */ 01592500
*/*               %INCLUDE SYSLIB(IHAETD)                            */ 01593000
*/*                                                                  */ 01593500
*/*            VIA ATTRIBUTE - SPECIFY %IHAVIA='YES' BEFORE THE      */ 01593800
*/*                            INCLUDE.                              */ 01594100
*/*                            DECLARE ETDALET.                      */ 01594400
*/*                                                                  */ 01594700
*/*      PL/AS LISTING - %IHALIST='YES' BEFORE THE %INCLUDE          */ 01597000
*/*                                                                  */ 01599300
*/*01* CREATED BY =                                                  */ 01601600
*/*      ISSUER OF THE ETCRE MACRO IN ANY ACCESSIBLE STORAGE         */ 01604000
*/*                                                                  */ 01613000
*/*01* DELETED BY =                                                  */ 01622000
*/*      ISSUER OF THE ETCRE MACRO                                   */ 01631000
*/*                                                                  */ 01650000
*/*01* POINTED TO BY =                                               */ 01700000
*/*      THE PARAMETER LIST PASSED TO THE ET CREATE SERVICE          */ 01750000
*/*      ROUTINE AFTER THE ETCRE MACRO HAS BEEN EXECUTED.            */ 01800000
*/*                                                                  */ 01850000
*/*01* SERIALIZATION =                                               */ 01900000
*/*      USER DEFINED - AREA OBTAINED AND CHANGED ONLY BY USER.      */ 01950000
*/*                                                                  */ 02000000
*/*01* DEPENDENCIES =                                                */ 02006600
*/*      IF THE OFFSETS IN THIS MACRO CHANGE, THE 'SETA' SYMBOLS     */ 02013200
*/*      DEFINED UNDER "IHAETD OFFSETS" IN THE BAL SOURCE OF THE     */ 02019800
*/*      ETDEF MACRO MUST ALSO BE CHANGED.                           */ 02026400
*/*                                                                  */ 02033200
*/*01* COMPONENT = SCXMS (PC/AUTH)                                   */ 02036200
*/*                                                                  */ 02039200
*/*01* DISTRIBUTION LIBRARY = AMACLIB                                */ 02040200
*/*                                                                  */ 02041200
*/****  END OF SPECIFICATIONS  ***************************************/ 02042200
*%GOTO PLSETD1; /*                                                 @L1C 02045200
.*                                                                      02048200
.*   CHANGE ACTIVITY =          THIS MACRO IS NEW FOR OS/VS2 JBB1226.   02051200
.*                                                                      02054200
.*                              31-BIT VIRTUAL SUPPORT         @G860PXW 02057200
.*                                                                      02060200
.*  $L1=AR       HBB3310  850909  PD16LD:  ACCESS REGISTERS             02063200
.*  $L2=AR       HBB3310  860106  PD16Q9:  ACCESS REGISTERS             02064700
.*  $L3=ARREN    JBB3311  880418  PD16LD:  ARR Enhancements             02065400
.*  $01=OY55354  HBB4430  920625  PD16EJ:  Add ETDRCRD                  02065800
.*                                                                      02066200
.********************************************************************** 02069200
.*                                                                      02072200
.* THE FOLLOWING ARE THE NAMING CONVENTIONS USED FOR RESERVED AREAS:    02075200
.*                                                                      02078200
.*  1. RESERVED FIELDS ARE NAMED AS FOLLOWS:                            02081200
.*                                                                      02084200
.*           ETDRSXXX    DC   XLNNN'00'    RESERVED                     02087200
.*                XXX         IS THE OFFSET WITHIN THE ETD              02090200
.*                NNN         IS THE LENGTH OF THE RESERVED FIELD       02093200
.*                                                                      02096200
.********************************************************************** 02111200
.*                                                                      02114200
         PUSH   PRINT                                                   02117200
         AIF    ('&LIST' EQ 'YES').ETDLIST    Generate listing     @L1A 02120200
         PRINT  OFF                                                     02123200
.ETDLIST ANOP   ,                                                  @L1A 02126200
.*                                                                      02129200
         AIF    ('&FORMAT' EQ '0' OR '&FORMAT' EQ '1').ETD4        @L1A 02132200
         MNOTE 8,' FORMAT=&FORMAT NOT VALID - USE FORMAT=0 OR 1'   @L1A 02135200
         AGO    .ETDEXIT              NO MAPPING IS GENERATED      @L1A 02138200
.*---------------------------------------------------------------- @L1A 02141200
.ETD4    ANOP                 GENERATE BASE PORTION OF MAPPING     @L1A 02144200
ETD      DSECT                                                          02150000
         DS    0D             ENTRY TABLE DESCRIPTION LIST -       @L1C 02200000
*                             DESCRIBES THE INPUT LIST TO THE ETCRE     02250000
*                             MACRO                                     02300000
ETDFMT   DS    B              FORMAT NUMBER OF ETD.                @L1C 02320000
*                              0= ORIGINAL FORM - PRE HBB3310      @L1A 02340000
ETDFMTE  EQU   X'01'           1= EXTENDED FORM - HBB3310          @L1A 02360000
ETDHFLAG DS    B              All non-used bits must be zero.      @01C 02370000
ETDRCRD  EQU   X'80'          If bit is ON, NO recording of cross  @01A 02372800
*                             memory connections will be performed.     02375600
*                             If bit is OFF, recording will be done.    02378400
*                             Classification: DMTI                      02381200
*                             Notes: All other bits must be zero.       02384000
*                                                                       02386800
ETDFLGRS EQU   X'7F'          Non-used bits mask                   @01A 02390000
ETDNUM   DS    H              NUMBER OF ENTRY DESCRIPTIONS THAT FOLLOW  02400000
*                             (MAXIMUM OF 128 ENTRIES PER TABLE)   @L1C 02440000
ETDEND   EQU   *                                                        02480000
ETDLEN   EQU   ETDEND-ETD     LENGTH OF ETD HEADER                      02520000
*                                                                       02536000
*                                                                       02552000
ETDELE   DSECT                ELEMENT DESCRIPTION.  ONE FOR EACH   @L1C 02568000
         DS    0F              ENTRY TO BE ASSIGNED.               @L1A 02584000
ETDEX    DS    B              INDEX FOR THIS ENTRY                      02600000
ETDFLG   DS    B              FLAG BYTE                                 02640000
ETDSUP   EQU   X'80'          PROGRAM EXECUTION STATE                   02680000
*                              0= PROBLEM STATE                         02720000
*                              1= SUPERVISOR STATE.                @L1C 02760000
ETDXM    EQU   X'40'          CROSS MEMORY SPACE SWITCH.           @L1C 02850000
*                              0= ENTRY WILL NOT CAUSE A SPACE SWITCH   02900000
*                              1= THE PROGRAM WILL EXECUTE IN THE       02950000
*                               ADDRESS SPACE OF THE CREATOR OF THE     03000000
*                               ENTRY TABLE WITH THE AUTHORIZATION OF   03050000
*                               THAT ADDRESS SPACE.                     03100000
ETDBRS3F EQU   X'3F'          RESERVED. BITS 3-8 MUST BE ZERO.     @L2A 03125000
ETDRS002 DS    H              RESERVED. MUST BE ZERO               @L1C 03150000
ETDPRO   DS    0CL8           PROGRAM NAME TO BE INVOKED OR VIRTUAL     03200000
*                             ADDRESS OF PROGRAM ENTRY POINT.           03250000
*                             IF A PROGRAM NAME, THE NAMED PROGRAM      03300000
*                             MUST BE ON THE ACTIVE LPA QUEUE           03350000
*                             (FLPA OR MLPA) OR BE IN THE PLPA OR       03383300
*                             NUCLEUS.                             @L2A 03416600
*                             IF AN ADDRESS, ETDPRO1 MUST BE ZERO AND   03450000
*                             ETDPRO2 MUST BE THE ADDRESS.              03520000
ETDPRO1  DS    F              FIRST WORD OF ETDPRO                      03560000
ETDPRO2  DS    F              SECOND WORD OF ETDPRO                     03600000
ETDAMODE EQU   X'80'          IF PROGRAM ADDRESS IS SPECIFIED THIS      03619900
*                             BIT INDICATES AMODE : IF 1, PC ROUTINE    03639800
*                             EXECUTES IN 31-BIT MODE. IF 0, PC         03659700
*                             ROUTINE EXECUTES IN 24-BIT MODE  @G860PXW 03679600
ETDAKM   DS    H              16 BIT AUTHORIZED KEY MASK. BIT 0         03700000
*                             REPRESENTS KEY 0, ETC. IF A BIT IS ON,    03750000
*                             THE CORRESPONDING KEY IS AUTHORIZED TO    03800000
*                             CALL THIS ENTRY.                          03850000
ETDAK0   EQU   X'8000'        MASK FOR KEY 0                            03852000
ETDAK1   EQU   X'4000'        MASK FOR KEY 1                            03854000
ETDAK2   EQU   X'2000'        MASK FOR KEY 2                            03856000
ETDAK3   EQU   X'1000'        MASK FOR KEY 3                            03858000
ETDAK4   EQU   X'0800'        MASK FOR KEY 4                            03860000
ETDAK5   EQU   X'0400'        MASK FOR KEY 5                            03862000
ETDAK6   EQU   X'0200'        MASK FOR KEY 6                            03864000
ETDAK7   EQU   X'0100'        MASK FOR KEY 7                            03866000
ETDAK8   EQU   X'0080'        MASK FOR KEY 8                            03868000
ETDAK9   EQU   X'0040'        MASK FOR KEY 9                            03870000
ETDAKA   EQU   X'0020'        MASK FOR KEY 10                           03872000
ETDAKB   EQU   X'0010'        MASK FOR KEY 11                           03874000
ETDAKC   EQU   X'0008'        MASK FOR KEY 12                           03876000
ETDAKD   EQU   X'0004'        MASK FOR KEY 13                           03878000
ETDAKE   EQU   X'0002'        MASK FOR KEY 14                           03880000
ETDAKF   EQU   X'0001'        MASK FOR KEY 15                           03882000
ETDEKM   DS    H              16 BIT ENTRY KEY MASK. BIT 0              03900000
*                             REPRESENTS KEY 0, ETC. IF A BIT IS ON,    03950000
*                             THE CALLED PROGRAM WILL BE AUTHORIZED     04000000
*                             TO USE THE CORRESPONDING KEY.             04050000
ETDEK0   EQU   X'8000'        MASK FOR KEY 0                            04052000
ETDEK1   EQU   X'4000'        MASK FOR KEY 1                            04054000
ETDEK2   EQU   X'2000'        MASK FOR KEY 2                            04056000
ETDEK3   EQU   X'1000'        MASK FOR KEY 3                            04058000
ETDEK4   EQU   X'0800'        MASK FOR KEY 4                            04060000
ETDEK5   EQU   X'0400'        MASK FOR KEY 5                            04062000
ETDEK6   EQU   X'0200'        MASK FOR KEY 6                            04064000
ETDEK7   EQU   X'0100'        MASK FOR KEY 7                            04066000
ETDEK8   EQU   X'0080'        MASK FOR KEY 8                            04068000
ETDEK9   EQU   X'0040'        MASK FOR KEY 9                            04070000
ETDEKA   EQU   X'0020'        MASK FOR KEY 10                           04072000
ETDEKB   EQU   X'0010'        MASK FOR KEY 11                           04074000
ETDEKC   EQU   X'0008'        MASK FOR KEY 12                           04076000
ETDEKD   EQU   X'0004'        MASK FOR KEY 13                           04078000
ETDEKE   EQU   X'0002'        MASK FOR KEY 14                           04080000
ETDEKF   EQU   X'0001'        MASK FOR KEY 15                           04082000
ETDPAR   DS    CL4            PARAMETER TO BE PASSED TO THE CALLED      04100000
*                             PROGRAM.                                  04140000
.*             SKIP THE EXTENDED PORTION IF FORMAT(0)              @L1A 04142700
         AIF   ('&FORMAT' EQ '0').ETD5                             @L1A 04145400
ETDOPTB1 DS    B              ETD OPTIONS BYTE 1                   @L1A 04148100
ETDPCTC  EQU   X'80'          PC-TYPE CONTROL                      @L1A 04150800
*                              0= BASIC PC                         @L1A 04153500
*                              1= STACKING PC                      @L1A 04156200
ETDBRS60 EQU   X'60'          RESERVED. BITS 2-3 MUST BE ZERO.     @L2A 04157500
ETDPKC   EQU   X'10'          PSW KEY CONTROL                      @L1A 04158900
*                              0= PSW KEY UNCHANGED                @L1A 04161600
*                              1= REPLACE PSW KEY WITH ETDEK       @L1A 04164300
ETDPKMC  EQU   X'08'          PSW KEY MASK CONTROL                 @L1A 04167000
*                              0= OR ETDEKM WITH PKM               @L1A 04169700
*                              1= REPLACE PKM WITH ETDEKM          @L1A 04172400
ETDEAXC  EQU   X'04'          EAX CONTROL                          @L1A 04175100
*                              0= NO EAX CHANGE                    @L1A 04177800
*                              1= REPLACE EAX WITH ETDEAX          @L1A 04180500
ETDASC   EQU   X'02'          ADDR SPACE CONTROL (PSW BITS 16-17)  @L1A 04183200
*                              0= PRIMARY MODE   (00)              @L1A 04185900
*                              1= AR MODE        (01)              @L1A 04188600
ETDSASNC EQU   X'01'          SASN CONTROL                         @L1A 04191300
*                              0= SET SASN TO OLD PASN             @L1A 04194000
*                              1= SET SASN TO NEW PASN             @L1A 04196700
ETDEK    DS    B              ENTRY KEY (HIGH ORDER 4 BITS)        @L1A 04199400
ETDEAX   DS    H              EXTENDED AUTHORIZATION INDEX         @L1A 04202100
ETDARR   DS    0CL8           ASSOCIATED RECOVERY ROUTINE NAME OR  @L2C 04202600
*                             ADDRESS OF ARR ENTRY POINT.               04203100
*                             IF AN ARR NAME, THE NAMED PROGRAM         04203600
*                             MUST BE ON THE ACTIVE LPA QUEUE           04204100
*                             (FLPA OR MLPA) OR BE IN THE PLPA OR       04204400
*                             NUCLEUS.                             @L2A 04204700
*                             IF AN ADDRESS, ETDARR1 MUST BE ZERO AND   04205100
*                             ETDARR2 MUST BE THE ADDRESS.              04205600
ETDARR1  DS    F              FIRST WORD OF ETDARR                 @L2A 04206100
ETDARR2  DS    F              SECOND WORD OF ETDARR                @L2A 04206600
ETDPAR2  DS    XL4            USER PARAMETER 2                     @L1A 04207500
ETDLPAFL DS    0F             FLAGS FOR LPA                        @L3A 04207900
ETDLPAB1 DS    B              FIRST BYTE OF FLAGS                  @L3A 04208300
ETDCANCL EQU   X'80'          CANCEL OPTION FOR ARR                @L3A 04208700
*                              0 => CANCEL=YES (DEFAULT).          @L3A 04209100
*                              1 => CANCEL=NO                      @L3A 04209500
ETDASYNC EQU   X'40'          ASYNCH OPTION FOR ARR                @L3A 04209900
*                              0 => ASYNCH=YES (DEFAULT).          @L3A 04210300
*                              1 => ASYNCH=NO                      @L3A 04210700
ETDRS1   EQU   X'3F'          RESERVED - MUST BE ZERO.             @L3A 04211100
ETDLPAB2 DS    XL3            RESERVED - MUST BE ZERO              @L3C 04211500
.ETD5    ANOP                 GENERATE COMMON TRAILER PORTION      @L1A 04212900
ETDEEND  DS    0F             END OF ENTRY TABLE DESCRIPTOR        @L1C 04215600
ETDELEN  EQU   ETDEEND-ETDELE LENGTH OF ENTRY DESCRIPTOR ELEMENT        04220000
.ETDEXIT ANOP                 END OF BAL GENERATION                @L1A 04233300
         POP   PRINT                                               @L1A 04246600
         MEND  , */                                                     04260000
*%PLSETD1: ;                                                            04300000
*                                                                       04303700
*%IF IHAVIA='YES'  %THEN                                                04304300
*   %IHAALET='VIA(ETDALET)' ;     /* VIA attribute requested     @L2A*/ 04304900
* %ELSE                                                                 04305500
*     %IHAALET='';                /* Don't use VIA               @L2A*/ 04306100
*                                                                       04306700
*@LISTPUSH;                       /* Save list option            @L1A*/ 04307400
*%IF IHALIST='YES' %THEN          /* Generate listing            @L1A*/ 04311100
*   %GOTO ETDLIST;                /*                             @L1A*/ 04314800
*@LISTOFF;                        /* Do not generate listing     @L1A*/ 04318500
*%ETDLIST: ;                      /*                             @L1A*/ 04322200
*%IF ETDFORM='' %THEN             /* IF UNSPECIFIED FORMAT       @L1A*/ 04325900
*   %ETDFORM='0';                 /* DEFAULT TO BASE FORMAT      @L1A*/ 04329600
*%IF ETDFORM='0' %THEN            /* IF VALID BASE FORMAT        @L1A*/ 04333300
*   %GOTO PLSETD4;                /*                             @L1A*/ 04337000
*%IF ETDFORM='1' %THEN            /* IF VALID EXTENDED FORMAT    @L1A*/ 04340700
*   %GOTO PLSETD4;                /*                             @L1A*/ 04344400
*%PLSETD3: ;                      /* This unused label is needed        04348100
*                                    to enable the PLS compiler to      04351800
*                                    print the following comment @L1A*/ 04355500
*   /*****************************************************************/ 04359200
*   /*  THE %ETDFORM MACRO VARIABLE WAS INCORRECTLY SPECIFIED PRIOR  */ 04362900
*   /*  TO INCLUDING THE IHAETD MACRO. USE %ETDFORM='0' OR '1'.      */ 04366600
*   /*  NO TEXT IS GENERATED;                                    @L1A*/ 04370300
*   /*****************************************************************/ 04374000
*   %GOTO PLSETDX;                /*  NO MAPPING IS GENERATED    @L1A*/ 04377700
*%PLSETD4: ;                      /*                             @L1A*/ 04381400
* DCL 1 ETD BASED(ETDPTR) BDY(DWORD)  IHAALET, /* ENTRY TABLE           04384200
*                                    DESCRIPTION LIST.                  04387000
*                                    DESCRIBES THE INPUT LIST           04390000
*                                    TO THE ETCRE MACRO.         @L2C*/ 04440000
*         3 ETDFMT FIXED(8),      /* FORMAT NUMBER OF ETD.              04470000
*                                     0= ORIGINAL FORM - PRE HBB3310    04500000
*                                     1= EXTENDED FORM - HBB3310 @L1A*/ 04530000
*         3 ETDHFLAG FIXED(8),    /* All unused bits must be zero.      04540000
*                                                                @01C*/ 04550000
*           5  ETDRCRD BIT(1),    /* 0 = Record(YES) entry table        04560000
*                                    1 = Record(NO) entry table         04566600
*                                    Classification: DMTI        @01A*/ 04573200
*           5  ETDFLGRS BIT(7),   /* Reserved, must be zero.     @01A*/ 04580000
*         3 ETDNUM FIXED(16);     /* NUMBER OF ENTRY DESCRIPTIONS THAT  04590000
*                                     FOLLOW  (MAXIMUM OF 128           04610000
*                                     ENTRIES PER TABLE)         @L1C*/ 04630000
* /*                                                             @L1A*/ 04650000
* /*                                                             @L1A*/ 04670000
* DCL 1 ETDELE BASED(ETDEPTR) BDY(WORD)  IHAALET, /* ELEMENT            04700000
*                                    DESCRIPTION.  ONE FOR EACH ENTRY   04730000
*                                    TO BE ASSIGNED              @L2C*/ 04760000
*         3 ETDEX FIXED(8),       /* INDEX FOR THIS ENTRY (0 ORIGIN) */ 04790000
*         3 ETDFLG BIT(8),        /* FLAG BYTE                       */ 04840000
*           5 ETDSUP BIT(1),      /* PROGRAM EXECUTION STATE            04883300
*                                     0= PROBLEM STATE                  04926600
*                                     1= SUPERVISOR STATE.       @L1C*/ 04969900
*           5 ETDXM BIT(1),       /* CROSS MEMORY SPACE SWITCH.         05013200
*                                     0= THE ENTRY WILL NOT CAUSE A     05056500
*                                       SPACE SWITCH.                   05099800
*                                     1= THE PROGRAM WILL EXECUTE IN    05143100
*                                       THE ADDRESS SPACE OF THE        05186400
*                                       CREATOR OF THE ENTRY TABLE      05229700
*                                       WITH THE AUTHORIZATION OF       05273000
*                                       THAT ADDRESS SPACE.      @L1C*/ 05316300
*           5 ETDBRS3F BIT(6),    /* RESERVED. BITS 3-8 MUST BE         05359600
*                                    ZERO.                       @L2C*/ 05402900
*         3 ETDRS002 FIXED(16),   /* RESERVED. MUST BE ZERO      @L1C*/ 05446200
*         3 ETDPRO CHAR(8) BDY(WORD), /* PROGRAM NAME OR THE VIRTUAL    05490000
*                                    ADDRESS TO BE GIVEN CONTROL. IF A  05515000
*                                    PROGRAM NAME, THE NAMED PROGRAM    05540000
*                                    MUST BE ON THE ACTIVE LPA QUEUE    05565000
*                                    (FLPA OR MLPA) OR BE IN THE PLPA   05581600
*                                    OR NUCLEUS.                        05598200
*                                    IF AN ADDRESS, ETDPRO1 MUST BE     05615000
*                                    ZERO AND ETDPRO2 MUST BE THE       05640000
*                                    ADDRESS.                    @L2C*/ 05665000
*           5 ETDPRO1 FIXED(32),  /* FIRST WORD OF ETDPRO            */ 05690000
*           5 ETDPRO2   PTR(31),  /* SECOND WORD OF ETDPRO           */ 05740000
*             7 ETDAMODE BIT(1),  /* IF PROGRAM ADDRESS IS SPECIFIED    05748300
*                                    THIS BIT INDICATES AMODE : IF 1,   05756600
*                                    PC ROUTINE EXECUTES IN 31-BIT      05764900
*                                    MODE. IF 0, PC ROUTINE EXECUTES    05773200
*                                    IN 24-BIT MODE          @G860PXW*/ 05781500
*         3 ETDAKM BIT(16),       /* 16 BIT AUTHORIZED KEY MASK. BIT 0  05790000
*                                    REPRESENTS KEY 0, ETC. IF A BIT IS 05840000
*                                    ON, THE CORRESPONDING KEY IS       05890000
*                                    AUTHORIZED TO CALL THIS ENTRY   */ 05920000
*           5 ETDAK0  BIT(1),     /* BIT REPRESENTING KEY 0          */ 05990000
*           5 ETDAK1  BIT(1),     /* BIT REPRESENTING KEY 1          */ 06040000
*           5 ETDAK2  BIT(1),     /* BIT REPRESENTING KEY 2          */ 06090000
*           5 ETDAK3  BIT(1),     /* BIT REPRESENTING KEY 3          */ 06140000
*           5 ETDAK4  BIT(1),     /* BIT REPRESENTING KEY 4          */ 06190000
*           5 ETDAK5  BIT(1),     /* BIT REPRESENTING KEY 5          */ 06240000
*           5 ETDAK6  BIT(1),     /* BIT REPRESENTING KEY 6          */ 06290000
*           5 ETDAK7  BIT(1),     /* BIT REPRESENTING KEY 7          */ 06340000
*           5 ETDAK8  BIT(1),     /* BIT REPRESENTING KEY 8          */ 06390000
*           5 ETDAK9  BIT(1),     /* BIT REPRESENTING KEY 9          */ 06440000
*           5 ETDAKA  BIT(1),     /* BIT REPRESENTING KEY 10         */ 06490000
*           5 ETDAKB  BIT(1),     /* BIT REPRESENTING KEY 11         */ 06540000
*           5 ETDAKC  BIT(1),     /* BIT REPRESENTING KEY 12         */ 06590000
*           5 ETDAKD  BIT(1),     /* BIT REPRESENTING KEY 13         */ 06640000
*           5 ETDAKE  BIT(1),     /* BIT REPRESENTING KEY 14         */ 06690000
*           5 ETDAKF  BIT(1),     /* BIT REPRESENTING KEY 15         */ 06740000
*         3 ETDEKM BIT(16),       /* 16 BIT ENTRY KEY MASK. BIT 0       06790000
*                                    REPRESENTS KEY 0, ETC. IF A BIT    06840000
*                                    IS ON, THE CALLED PROGRAM IS       06870000
*                                    AUTHORIZED TO USE THE KEY.      */ 06900000
*           5 ETDEK0  BIT(1),     /* BIT REPRESENTING KEY 0          */ 06990000
*           5 ETDEK1  BIT(1),     /* BIT REPRESENTING KEY 1          */ 07040000
*           5 ETDEK2  BIT(1),     /* BIT REPRESENTING KEY 2          */ 07090000
*           5 ETDEK3  BIT(1),     /* BIT REPRESENTING KEY 3          */ 07140000
*           5 ETDEK4  BIT(1),     /* BIT REPRESENTING KEY 4          */ 07190000
*           5 ETDEK5  BIT(1),     /* BIT REPRESENTING KEY 5          */ 07240000
*           5 ETDEK6  BIT(1),     /* BIT REPRESENTING KEY 6          */ 07290000
*           5 ETDEK7  BIT(1),     /* BIT REPRESENTING KEY 7          */ 07340000
*           5 ETDEK8  BIT(1),     /* BIT REPRESENTING KEY 8          */ 07390000
*           5 ETDEK9  BIT(1),     /* BIT REPRESENTING KEY 9          */ 07440000
*           5 ETDEKA  BIT(1),     /* BIT REPRESENTING KEY 10         */ 07490000
*           5 ETDEKB  BIT(1),     /* BIT REPRESENTING KEY 11         */ 07540000
*           5 ETDEKC  BIT(1),     /* BIT REPRESENTING KEY 12         */ 07590000
*           5 ETDEKD  BIT(1),     /* BIT REPRESENTING KEY 13         */ 07640000