*                                                                       00050000
*        %GOTO PLSETRI1;    /*                                          00100000
         MACRO                                                          00150000
&NAME    IHAETRI   &LIST=NO                                             00200000
**/                                                                     00250000
*%PLSETRI1: ;                                                           00300000
*                                                                       00350000
*/* START OF SPECIFICATIONS ******************************************* 00400000
*                                                                       00450000
*01* MACRO NAME:  IHAETRI                                               00500000
*                                                                       00550000
*01* DESCRIPTIVE NAME:   ETR Status Informatiom Mapping                 00600000
*                                                                       00650000
*01* PROPRIETARY STATEMENT:                                             00700000
*        LICENSED MATERIALS - PROPERTY OF IBM                           00750000
*        THIS MACRO IS "RESTRICTED MATERIALS OF IBM"                    00800000
*        5655-068 (C) COPYRIGHT IBM CORP.  1995,                        00850000
*        SEE COPYRIGHT INSTRUCTIONS                                     00900000
*                                                                       00950000
*01* STATUS: JBB5522                                                    01000000
*01* EXTERNAL CLASSIFICATION: GUPI                                      01050000
*01* END OF EXTERNAL CLASSIFICATION:                                    01100000
*01* ACRONYM: None                                                      01150000
*01* DSECT NAME: ETRI                                                   01200000
*                                                                       01250000
*01* EYE-CATCHER: None                                                  01300000
*01* SIZE: 24 bytes                                                     01350000
*                                                                       01400000
*01* FUNCTION:  Provide data mapping of the output from the             01450000
*               IEAMETR macro service routine.                          01500000
*                                                                       01550000
*01* METHOD OF ACCESS:                                                  01600000
*                                                                       01650000
*         BAL:                                                          01700000
*            USING's on ETRI gives addresability to all symbols in      01750000
*            IHAETRI.                                                   01800000
*            Specify LIST=YES on the macro call to obtain listing.      01850000
*                                                                       01900000
*         PL/AS:                                                        01950000
*                                                                       02000000
*            The ETRI is declared as based.                             02050000
*                                                                       02100000
*            Specify %IHALIST='YES' before %INCLUDE to obtain the       02150000
*            PL/AS listing.                                             02200000
*                                                                       02250000
*01* POINTED TO BY:  Values specified via the OUTADDR parameter on      02270000
*                    IEAMETR macro invocations                          02290000
*                                                                       02310000
*01* CREATED BY:  Invokers of the IEAMETR macro                         02330000
*                                                                       02350000
*                                                                       02400000
*01* DELETED BY:  Invokers of the IEAMETR macro                         02450000
*                                                                       02650000
*01* SERIALIZATION: None                                                02700000
*                                                                       02750000
*01* STORAGE ATTRIBUTES:                                                02800000
*                                                                       02850000
*02*   ALLOCATION METHOD:  N/A                                          02900000
*02*   SUBPOOL:   N/A                                                   02950000
*02*   RESIDENCY:  In user's storage.                                   03000000
*                                                                       03050000
*01* COMPONENT:   SC1CV (Timer)                                         03100000
*                                                                       03150000
*01* DISTRIBUTION LIBRARY:  AOCOLIB                                     03200000
*                                                                       03250000
*** END OF SPECIFICATIONS ********************************************/ 03300000
*       %GOTO PLSETRI2; /*                                              03350000
.*                                                                      03400000
.********************************************************************** 03450000
.*   CHANGE ACTIVITY :                                                  03500000
.*                                                                      03550000
.*  $00=OW21776  HBB5510  960806  B7HGH5: ESCON Mgr support             03600000
.*  $P1=PSY0309  JBB6604  970328  B7HGH5: SHOWHRD changes               03625000
.*                                                                      03650000
.*********************************************************************/ 03700000
.*                                                                      03750000
.*                                                                      03800000
         PUSH  PRINT                                                    03850000
         AIF   ('&LIST' EQ 'YES').ETRILST                               03900000
         PRINT OFF                                                      03950000
.ETRILST ANOP                                                           04000000
         SPACE 1                                                        04050000
ETRI            DSECT ,                                                 04100000
ETRIDATA        DS    0D                                                04150000
ETRITMSTMP      DS    0BL8          STCK value at time information      04200000
*                                   was collected.                      04250000
ETRITIMEH       DS    BL4                                               04300000
ETRITIMEL       DS    BL4                                               04350000
*                                                                       04400000
ETRIIMAGE       DS    0CL4          This word contains information      04450000
*                                   for the whole MVS image.            04500000
                DS    BL1                                               04550000
ETRIETR         EQU   X'80'         Image is in ETR mode.               04600000
ETRILOCAL       EQU   X'40'         Image is in local mode.             04650000
ETRISIMETR      EQU   X'20'         Image is in SIMETR mode.            04700000
ETRINOTINSTALLED EQU  X'10'         ETR is not installed on this        04750000
*                                   machine.                            04800000
ETRISIDE        EQU   X'08'         Active machine side if in ETR       04850000
*                                   mode.                               04900000
ETRITUNED       EQU   X'04'         The active port is tuned.           04950000
ETRIREQSTD      EQU   X'02'         The use of the ETR was requested.   05000000
ETRICPLD        EQU   X'01'         The 9037 to which this MVS is       05050000
*                                   attached is part of a High          05100000
*                                   Availability Configuration.         05150000
ETRISIMETRID    DS    BL1           Net ID if in SIMETR mode.           05200000
                DS    BL2           Reserved.                           05250000
*                                                                       05300000
ETRIPORT0       DS    0CL4          Status for CPC port 0.              05350000
ETRIP0FLAGS     DS    BL1                                               05400000
ETRIP0OPER      EQU   X'80'         This port is operational.           05450000
ETRIP0ENABLED   EQU   X'40'         This port is enabled.               05500000
ETRIP0ACTIVE    EQU   X'20'         This port is the active port.       05550000
ETRIP0DATA      EQU   X'10'         The ID data is valid.               05600000
*                                                                       05650000
ETRIP0NETID     DS    BL1           ETR Net ID to which this port       05700000
*                                   is connected.                       05750000
ETRIP0ETRID     DS    BL1           9037 ID to which this port is       05800000
*                                   connected.                          05850000
ETRIP0PORTN0    DS    BL1           ETR port number to which this       05900000
*                                   port is connected.                  05950000
ETRIPORT1       DS    0CL4          Status for CPC port 1.              06000000
ETRIP1FLAGS     DS    BL1                                               06050000
ETRIP1OPER      EQU   X'80'         This port is operational.           06100000
ETRIP1ENABLED   EQU   X'40'         This port is enabled.               06150000
ETRIP1ACTIVE    EQU   X'20'         This port is the active port.       06200000
ETRIP1DATA      EQU   X'10'         The ID data is valid.               06250000
ETRIP1NETID     DS    BL1           ETR Net ID to which this port       06300000
*                                   is connected.                       06350000
ETRIP1ETRID     DS    BL1           9037 ID to which this port is       06400000
*                                   connected.                          06450000
ETRIP1PORTN0    DS    BL1           ETR port number to which this       06500000
*                                   port is connected.                  06550000
*                                                                       06600000
                DS    CL4           Reserved.                           06650000
*                                                                       06700000
         POP   PRINT                                                    06750000
         MEND                                                           06800000
******************************************************************      06850000
*%PLSETRI2: ;                                                           06900000
*                                                                       06950000
*@LISTPUSH;                                                             07000000
*%IF IHALIST='YES' %THEN                                                07050000
*  %GOTO ETRILIST;                                                      07100000
*@LISTOFF;                                                              07150000
*%ETRILIST:;                                                            07200000
*DECLARE                                                                07250000
*   1 ETRIDATA BDY(DWORD) BASED,                                        07300000
*     3 ETRITMSTMP BIT(64),        /* STCK value at time information    07350000
*                                     was collected.                */  07400000
*       5 ETRITIMEH BIT(32),                                            07450000
*       5 ETRITIMEL BIT(32),                                            07500000
*     3 ETRIIMAGE   CHAR(4),       /* This word contains information    07550000
*                                     for the whole MVS image.      */  07600000
*      5 *       BIT(8),                                                07650000
*         7 ETRIETR        BIT(1), /* Image is in ETR mode.         */  07700000
*         7 ETRILOCAL      BIT(1), /* Image is in local mode.       */  07750000
*         7 ETRISIMETR     BIT(1), /* Image is in SIMETR mode.      */  07800000
*         7 ETRINOTINSTALLED BIT(1), /* ETR is not installed on this    07850000
*                                     machine.                      */  07900000
*         7 ETRISIDE       BIT(1), /* Active machine side if in ETR     07950000
*                                     mode.                         */  08000000
*         7 ETRITUNED      BIT(1), /* The active port is tuned.     */  08050000
*         7 ETRIREQSTD      BIT(1), /* The use of the ETR was           08100000
*                                     requested.                    */  08150000
*         7 ETRICPLD       BIT(1), /* The 9037 to which this MVS is     08200000
*                                     attached is part of a High        08250000
*                                     Availability Configuration.   */  08300000
*       5 ETRISIMETRID     BIT(8), /* Net ID if in SIMETR mode.     */  08350000
*       5 *                BIT(16),/* Reserved.                     */  08400000
*     3 ETRIPORT0   CHAR(4),       /* Status for CPC port 0.        */  08450000
*       5 ETRIFP0FLAGS BIT(8),                                          08500000
*         7 ETRIP0OPER     BIT(1), /* This port is operational.     */  08550000
*         7 ETRIP0ENABLED  BIT(1), /* This port is enabled.         */  08600000
*         7 ETRIP0ACTIVE   BIT(1), /* This port is the active port. */  08650000
*         7 ETRIP0DATA     BIT(1), /* The ID data is valid.         */  08700000
*         7 *              BIT(4), /* Reserved.                     */  08750000
*       5 ETRIP0NETID      BIT(8), /* ETR Net ID to which this port     08800000
*                                     is connected.                 */  08850000
*       5 ETRIP0ETRID      BIT(8), /* 9037 ID to which this port is     08900000
*                                     connected.                    */  08950000
*       5 ETRIP0PORTNO     BIT(8), /* ETR port number to which this     09000000
*                                     port is connected.            */  09050000
*     3 ETRIPORT1   CHAR(4),       /* Status for CPC port 1.        */  09100000
*       5 ETRIP1FLAGS BIT(8),                                           09150000
*         7 ETRIP1OPER     BIT(1), /* This port is operational.     */  09200000
*         7 ETRIP1ENABLED  BIT(1), /* This port is enabled.         */  09250000
*         7 ETRIP1ACTIVE   BIT(1), /* This port is the active port. */  09300000
*         7 ETRIP1DATA     BIT(1), /* The ID data is valid.         */  09350000
*         7 *              BIT(4), /* Reserved.                     */  09400000
*       5 ETRIP1NETID      BIT(8), /* ETR Net ID to which this port     09450000
*                                     is connected.                 */  09500000
*       5 ETRIP1ETRID      BIT(8), /* 9037 ID to which this port is     09550000
*                                     connected.                    */  09600000
*       5 ETRIP1PORTNO     BIT(8), /* ETR port number to which this     09650000
*                                     port is connected.            */  09700000
*     3 *              CHAR(4);    /* Reserved.                     */  09750000
*                                                                       09800000
*  @LISTPOP;                                                            09850000
