         MACRO                                                @G381P2A  00050000
&NAME    IHBINNRY &EP,&EPLOC,&DE,&DCB,&LSEARCH,               @G381P2A X00100000
               &CALL,&PARAM,&MF,                              @G381P2A X00150000
               &ERRET=,&SF=I,&PLIST8=,&PLIST4=                    @L2C  00200000
.********************************************************************** 00250000
.*                                                                    * 00300000
.* COPYRIGHT = 5647-A01                                               * 00350000
.*             THIS MODULE IS "RESTRICTED MATERIALS OF IBM"           * 00400000
.*             (C) COPYRIGHT IBM CORP. 1988, 2000                     * 00450000
.*             LICENSED MATERIALS - PROPERTY OF IBM                   * 00500000
.*                                                                    * 00650000
.* STATUS =  HBB7703                                                  * 00670000
.*                                                                    * 00690000
.*01* EXTERNAL CLASSIFICATION: NONE                                   * 00710000
.*01* END OF EXTERNAL CLASSIFICATION:                                 * 00730000
.*                                                                    * 00750000
.* CHANGE ACTIVITY =                                                  * 00800000
.*   $L1 =    AR    HBB3310 850901 PDXB: AR SUPPORT                   * 00850000
.*   $01=OY56888,HBB3310,920825,PDPA: ALLOW EXPLICIT NOTATION FOR     * 00883300
.*                                    PARAMETER LIST ADDRESS      @01A* 00916600
.*   $02=OY65329,HBB4420,930826,PDBE: REMOVE DUPLICATE &NAME LBLS @02A* 00933300
.*   $L2 = 64BITCSV HBB7703 980311 PDXB: 64-BIT SUPPORT               * 00941600
.*                                                                    * 00950000
.********************************************************************** 01000000
         GBLC  &IHBNO                                         @G381P2A  01050000
         LCLB  &B(13)                                         @G860P35  01100000
         LCLA  &A,&OFFBASE,&OFFFLG                                @L2C  01150000
         LCLC  &CHARS,&DCBVAL,&EPNAME,&ERRVAL                 @G381P2A  01200000
         LCLC  &PNAME                                             @L1A  01250000
&EPNAME  SETC  'IHB'.'&SYSNDX'                                @G381P2A  01300000
&B(1)    SETB  ('&EP' NE '')                                  @G381P2A  01350000
&B(2)    SETB  ('&EPLOC' NE '')                               @G381P2A  01400000
&B(3)    SETB  ('&DE' NE '')                                  @G381P2A  01450000
&B(4)    SETB  ('&ERRET' NE '')                               @G381P2A  01500000
&B(5)    SETB  0                                                        01550000
         GBLC  &SYSASCE                                            @L1A 01600000
         GBLC  &SYSAM64                                            @L2A 01612500
         GBLA  &SYSALVL                                            @L2A 01625000
         GBLC  &SYSPLIST8                                          @L2A 01637500
         SYSSTATE TEST                  TEST ASC ENVIRONMENT       @L1A 01650000
         LCLC  &LA                      "LA" OR "LAE" VIA SYSSTATE @L1A 01658300
&LA      SETC  'LA'                     MUST USE LA INSTRUCTION    @L1A 01666600
         AIF   ('&SYSASCE' EQ 'P').NOLAE                           @L1A 01674900
&LA      SETC  'LAE'                    MUST USE LAE               @L1A 01683200
.NOLAE   ANOP                                                      @L1A 01691500
         AIF   ('&LSEARCH' EQ '').NLSER   NO LSEARCH CONTINUE @G381P2A  01700000
         AIF   ('&LSEARCH' NE 'YES' AND '&LSEARCH' NE 'NO').E6          01750000
.*                                                            @G381P2A  01800000
&B(6)    SETB  ('&LSEARCH(1)' EQ 'YES')                       @G381P2A  01850000
.NLSER   ANOP                                                 @G381P2A  01900000
&B(7)    SETB  ('&SYSPLIST8' EQ 'YES')  8-BYTE PLIST ENTRY        @L2C  01950000
&B(8)    SETB  0                     NOT USED                     @L1C  02000000
&B(9)    SETB  0                     NOT ADDR                     @L1C  02050000
&B(10)   SETB  ('&CALL' EQ 'LINK' OR '&CALL' EQ 'XCTL')       @G381P2A  02100000
&B(11)   SETB  0                     NOT LOAD                     @L1C  02150000
&B(12)   SETB  0                     NOT USED                     @L1C  02200000
&B(13)   SETB  0                     NO LOADPT                    @L1C  02250000
         AIF   (&B(1)+&B(2)+&B(3) GT 1).E1   TOO MANY PARMS SPECIFIED   02300000
.*                                                            @G381P2A  02350000
         AIF   ('&EP' EQ '').AGONE   EP NOT SPECIFIED         @G381P2A  02400000
         AIF   ('&EP'(1,1) EQ '(').E1A  EP REG FORM NOT ALLOWED         02450000
.*                                                            @G381P2A  02500000
.AGONE   ANOP                                                 @G381P2A  02550000
         AIF   ('&SF' EQ 'L').LROUT   PROCESS L FORM          @G381P2A  02600000
&OFFFLG  SETA  (10)   COMPUTE FLAGS OFFSET                    @G381P2A  02650000
         AIF   ('&SF' EQ 'I').IROUT   PROCESS I FORM          @G381P2A  02700000
.********************************************************************** 02750000
.*                                                                    * 02800000
.*  PROCESS SF=E FORM                                                 * 02850000
.*                                                                    * 02900000
.********************************************************************** 02950000
         CNOP  0,4                                       @ZA64577 @02C  02983300
.*              REMOVE LABEL ON PREVIOUS CNOP - CAUSES DUP LABELS @02A  03016600
         AIF   (N'&SF NE 2).E2     ' E FORM MUST HAVE 2 OPERANDS        03058300
.*                                                            @G381P2A  03100000
         AIF   ('&SF(1)' NE 'E').E2   E FORM MUST BE SPECIFIED          03150000
.*                                                            @G381P2A  03200000
         AIF   ('&SF'(4,1) EQ '(').ISAREG  E FORM REG SPECIFIED         03250000
.*                                                            @G381P2A  03300000
         AIF   ('&PARAM' EQ '' AND '&MF(1)' NE 'E').ACONST CONSTRUCT    03350000
.*                                   BRANCH                   @ZMB0095  03400000
         AIF   ('&SYSPLIST8' NE 'YES').TRYARA                     @L2A  03405000
         AIF   (&SYSALVL LT 2).XCST1                              @L2A  03410000
         STG   1,&SF(2)+16        STORE 64-BIT PLIST ADDRESS      @L2A  03415000
         AGO   .ACONST                                            @L2A  03420000
.XCST1   ANOP                                                     @L2A  03425000
         XC    &SF(2)+16(4),&SF(2)+16                             @L2A  03430000
         ST    1,&SF(2)+20        STORE PLIST ADDRESS             @L2A  03435000
         AGO   .ACONST                                            @L2A  03440000
.TRYARA  ANOP                                                     @L2A  03445000
         ST    1,16+&SF(2)    STORE PROBLEM PROG PARM LIST ADDR   @01C  03450000
         AIF   ('&SYSASCE' EQ 'P').ACONST                         @L1A  03500000
         STAM  1,1,&SF(2)+28      STORE PROBLEM PROG PLIST ALET   @L1A  03550000
.*                                                            @G381P2A  03600000
.ACONST  ANOP                                                 @G381P2A  03650000
         &LA   1,&SF(2)           LOAD SUPV PARM LIST ADDR        @L1C  03700000
         AGO   .CONTA                                         @G381P2A  03750000
.E1      IHBERMAC 88,&IHBNO   TOO MANY PARAMETERS PRESENT     @G381P2A  03800000
         MEXIT                                                @G381P2A  03850000
.E1A     IHBERMAC 42,&EP      R-FORM INVALID FOR EP NAME      @G381P2A  03900000
         MEXIT                                                @G381P2A  03950000
.E2      IHBERMAC 41,,&SF,,,0   SF PARAMETER BAD              @G381P2A  04000000
         MEXIT                                                @G381P2A  04050000
.E3      IHBERMAC 72,&IHBNO   REG. NOT. W/SF=L                @G381P2A  04100000
         MEXIT                                                @G381P2A  04150000
.E4      IHBERMAC 31,&IHBNO   EP,EPLOC,DE ALL MISSING         @G381P2A  04200000
         MEXIT                                                @G381P2A  04250000
.E6      MNOTE    12,'*** IHB006 LSEARCH MUST BE YES OR NO'   @G381P2A  04300000
         MEXIT                                                @G381P2A  04350000
.ISAREG  ANOP                                                 @G381P2A  04400000
         AIF   ('&SF(2)' EQ '(1)').E2 R1 NOT ALLOWED          @G381P2A  04450000
&A       SETA  K'&SF-6  ' CALCULATE PTR TO REGISTER IN STRING @G381P2A  04500000
&CHARS   SETC  '&SF'(5,&A) EXTRACT REGISTER SPECIFIED         @G381P2A  04550000
         AIF   ('&PARAM' EQ '' AND '&MF(1)' NE 'E').BCONST CONSTRUCT    04600000
.*                                   BRANCH                   @ZMB0095  04650000
         AIF   ('&SYSPLIST8' NE 'YES').TRYARB                     @L2A  04655000
         AIF   (&SYSALVL LT 2).XCST2                              @L2A  04660000
         STG   1,16(&CHARS)      STORE 64-BIT PLIST ADDRESS       @L2A  04665000
         AGO   .BCONST                                            @L2A  04670000
.XCST2   ANOP                                                     @L2A  04675000
         XC    16(4,&CHARS),16(&CHARS)                            @L2A  04680000
         ST    1,20(&CHARS)      STORE 64-BIT PLIST ADDRESS       @L2A  04685000
         AGO   .BCONST                                            @L2A  04690000
.TRYARB  ANOP                                                     @L2A  04695000
         ST    1,16(&CHARS)       STORE PROBLEM PROG PARM LIST ADDR     04700000
         AIF   ('&SYSASCE' EQ 'P').BCONST                         @L1A  04750000
         STAM  1,1,28(&CHARS)     STORE PROBLEM PROG PLIST ALET   @L1A  04800000
.*                                                            @G381P2A  04850000
.BCONST  ANOP                                                 @G381P2A  04900000
         &LA   1,0(,&CHARS)       LOAD SUPV PARM LIST ADDR        @L1C  04950000
.CCONST  ANOP                                                 @G381P2A  05000000
.CONTA   ANOP                                                           05050000
         AIF   ('&EP' EQ '' AND '&EPLOC' EQ '' AND                     *05100000
                '&DE' EQ '' AND '&LSEARCH' EQ '' AND                   *05150000
                '&CALL' EQ '' AND                                      *05200000
                '&PARAM' EQ '' AND '&ERRET' EQ '').NOVERSN              05250000
         MVI   8(1),1             SET VERSION NUMBER                    05300000
.NOVERSN ANOP                                                           05350000
         AIF   (NOT &B(1)).CONTB  IF NO EP SPECIFIED          @G381P2A  05400000
         &LA   0,*+8              LOAD EP ADDR IN REG 0           @L1C  05450000
         B     *+12               BRANCH AROUND EP            @G381P2A  05500000
         DC    CL8'&EP'           EP SYMBOL                   @G381P2A  05550000
         ST    0,0(0,1)           STORE EP ADDR IN SUPV PARMLIST        05600000
         AIF   ('&SYSASCE' EQ 'P').DCBCHK                         @L1A  05650000
         AIF   ('&SYSPLIST8' EQ 'YES').DCBCHK                     @L2A  05675000
         STAM  0,0,20(1)          STORE EP ADDR ALET              @L1A  05700000
.*                                                            @G381P2A  05750000
         AGO   .DCBCHK            CHECK FOR DCB               @G381P2A  05800000
.CONTB   AIF   (&B(2)+&B(3) EQ 0).DCBCHK NEITHER DE NOR EPLOC SPECIFIED 05850000
.*                                                            @G381P2A  05900000
         AIF   ('&EPLOC&DE'(1,1) EQ '(').ISAREGA  PROCESS REG FORM      05950000
.*                                                            @G381P2A  06000000
         &LA   0,&EPLOC&DE        PICK UP SUPV PARMLIST           @L1C  06050000
         ST    0,0(0,1)           STORE IN SUPV PARMLIST      @G381P2A  06100000
         AIF   ('&SYSASCE' EQ 'P').DECHK                          @L1A  06150000
         AIF   ('&SYSPLIST8' EQ 'YES').DECHK                      @L2A  06175000
         STAM  0,0,20(1)          STORE EP ADDR ALET              @L1A  06200000
         AGO   .DECHK                                         @G381P2A  06250000
.ISAREGA &LA   0,0(0,&EPLOC(1)&DE(1)) PICKUP EPLOC OR DE PARM     @L1C  06300000
         ST    0,0(0,1)               STORE IN SUPV PARMLIST  @ZA63079  06350000
         AIF   ('&SYSASCE' EQ 'P').DECHK                          @L1A  06400000
         AIF   ('&SYSPLIST8' EQ 'YES').DECHK                      @L2A  06425000
         STAM  0,0,20(1)          STORE EP ADDR ALET              @L1A  06450000
.DECHK   AIF   (NOT &B(3)).DCBCHK  DE NOT SPECIFIED           @G381P2A  06500000
         OI    &OFFFLG.(1),X'80'  SET DE SWITCH BIT ON        @G381P2A  06550000
.DCBCHK  AIF   ('&DCB' EQ '').LOADCK PROCESS ADDR OPERAND     @G381P2A  06600000
         AIF   ('&DCB'(1,1) EQ '(').ISAREGB REG FORM          @G381P2A  06650000
         &LA   0,&DCB             PICK UP DCB PARM                @L1C  06700000
         AGO   .STORDCB                                       @G381P2A  06750000
.ISAREGB &LA   0,0(0,&DCB(1))     PICK UP DCB PARM                @L1C  06800000
.STORDCB ST    0,4(0,1)           STORE DCB PARAMETER IN LIST @G381P2A  06850000
         AIF   ('&SYSASCE' EQ 'P').LOADCK                         @L1A  06900000
         STAM  0,0,24(1)          STORE DCB PARAMETER ALET        @L1A  06950000
.LOADCK  ANOP                     NOT LOAD                        @L1C  07000000
.RETCK   AIF   ('&ERRET' EQ '').RFLAG                                   07050000
         AIF   ('&ERRET'(1,1) EQ '(').RFORM  REG FORM         @G381P2A  07100000
         LA    0,&ERRET           PICK UP RETURN ADDRESS      @G381P2A  07150000
         ST    0,12(0,1)          STORE RETURN ADDRESS IN PARM LIST     07200000
.*                                                            @G381P2A  07250000
         AGO   .RFLAG                                         @G381P2A  07300000
.RFORM   LA    0,0(0,&ERRET(1))   PICKUP RETURN ADDRESS PARM  @ZA63079  07350000
         ST    0,12(0,1)          STORE RETURN ADDRESS IN PARM LIST     07400000
.*                                                            @ZA63079  07450000
.RFLAG   ANOP                                                 @G381P2A  07500000
         AIF   (NOT &B(4)).LCHK                               @G381P2A  07550000
         OI    &OFFFLG.(1),X'20'  TURN ON RETURN REQUESTED BIT          07600000
.*                                                            @G381P2A  07650000
.LCHK    AIF   ('&LSEARCH' EQ '').ENDLCHK                     @G381P2A  07700000
         AIF   ('&LSEARCH' EQ 'NO').LNO                       @G381P2A  07750000
         OI    &OFFFLG.(1),X'40'  TURN ON LSEARCH REQUESTED BIT         07800000
.*                                                            @G381P2A  07850000
         AGO   .ENDLCHK                                       @G381P2A  07900000
.LNO     ANOP                                                 @G381P2A  07950000
         NI    &OFFFLG.(1),X'BF'  TURN OFF LSEARCH REQUESTED BIT        08000000
.*                                                            @G381P2A  08050000
.ENDLCHK ANOP                                                     @L2A  08053500
.PL8CHK  ANOP                                                     @L2A  08057000
         AIF   ('&SYSPLIST8' EQ 'YES').PL8YES                     @L2A  08060500
         AIF   ('&PLIST4' EQ '' AND '&PLIST8' EQ '').ENDPL8CHK    @L2A  08064000
.*                                                                @L2A  08067500
.PL8NO   ANOP                                                     @L2A  08071000
         NI    &OFFFLG.(1),X'EF'  TURN OFF PLIST8 BIT                   08074500
         AGO   .ENDPL8CHK                                         @L2A  08078000
.*                                                                @L2A  08081500
.PL8YES  ANOP                                                     @L2A  08085000
         OI    &OFFFLG.(1),X'10'  TURN ON PLIST8 BIT                    08088500
.*                                                                @L2A  08092300
.ENDPL8CHK ANOP                                                   @L2A  08096100
         AGO   .END                                           @G381P2A  08100000
.********************************************************************** 08150000
.*                                                                    * 08200000
.*  PROCESS SF=L FORM                                                 * 08250000
.*                                                                    * 08300000
.********************************************************************** 08350000
.LROUT   CNOP  0,4                                            @G381P2A  08400000
         AIF   (NOT &B(1)).CKEPLOC                            @G381P2A  08450000
&NAME    DC    AL4(&EPNAME)       ADDRESS OF EP PARAMETER     @G381P2A  08500000
         AGO   .CHKDCB                                        @G381P2A  08550000
.CKEPLOC AIF   (&B(2)+&B(3) EQ 0).PUTZERO                     @G381P2A  08600000
         AIF   ('&EPLOC&DE'(1,1) EQ '(').E3                   @G381P2A  08650000
&NAME    DC    AL4(&EPLOC&DE)     EPLOC OR DE PARAMETER       @G381P2A  08700000
         AGO   .CHKDCB                                        @G381P2A  08750000
.PUTZERO ANOP                                                 @G381P2A  08800000
&NAME    DC    A(0)               ADDRESS OF EP OR DE PARAMETER         08850000
.*                                                            @G381P2A  08900000
.CHKDCB  AIF   ('&DCB' EQ '').ZERODCB                         @G381P2A  08950000
         AIF   ('&DCB'(1,1) EQ '(').E3                        @G381P2A  09000000
&DCBVAL  SETC  '&DCB'                                         @G381P2A  09050000
         AGO   .CHKERR                                        @G381P2A  09100000
.ZERODCB ANOP                                                 @G381P2A  09150000
&DCBVAL  SETC  '0'                                            @G381P2A  09200000
.CHKERR  AIF   ('&ERRET' EQ '').ZEROERR                       @G381P2A  09250000
         AIF   ('&ERRET'(1,1) EQ '(').E3                      @G381P2A  09300000
&ERRVAL  SETC  '&ERRET'                                       @G381P2A  09350000
         AGO   .DOLIST                                        @G381P2A  09400000
.ZEROERR ANOP                                                 @G381P2A  09450000
&ERRVAL  SETC  '0'                                            @G381P2A  09500000
.DOLIST  ANOP                                                 @G381P2A  09550000
         DC    AL4(&DCBVAL)       DCB ADDRESS PARAMETER       @G381P2A  09600000
         DC    AL1(1)             PARAMETER LIST FORMAT NUMBER    @L1C  09650000
         DC    AL1(0)             RESERVED                    @G381P2A  09700000
         DC    B'&B(3)&B(6)&B(4)&B(7)&B(8)&B(9)&B(12)&B(13)' OPTIONS    09750000
.*                                                            @G860P35  09800000
         DC    AL1(0)             RESERVED                    @G381P2A  09850000
.ERRCK   ANOP                                                 @G381P2A  09900000
         AIF   ('&ERRET' EQ '').PASSERR                       @G381P2A  09950000
         DC    A(&ERRVAL)         RETURN ADDRESS PARAMETER    @G381P2A  10000000
         DC    A(0)               PROBLEM PROGRAM PARAMETERS ADDRESS    10050000
.*                                                            @G381P2A  10100000
         AGO   .CHKEP                                         @G381P2A  10150000
.PASSERR ANOP                                                 @G381P2A  10200000
         DC    A(0)               RETURN ADDRESS PARAMETER    @G381P2A  10250000
         DC    A(0)               PROBLEM PROGRAM PARAMETERS ADDRESS    10300000
.*                                                            @G381P2A  10350000
.CHKEP   ANOP                                                     @L1A  10400000
         DC    A(0)               ALET FOR EP/EPLOC/DE            @L1A  10450000
         DC    A(0)               ALET FOR DCB                    @L1A  10500000
         DC    A(0)               ALET FOR LINK/XCTL PLIST        @L1A  10550000
         AIF   (NOT &B(1)).END                                    @L1C  10600000
&EPNAME  DC    CL8'&EP'           EP PARAMETER                @G381P2A  10650000
         AGO   .END                                           @G381P2A  10700000
.********************************************************************** 10750000
.*                                                                    * 10800000
.*  PROCESS SF=I FORM                                                 * 10850000
.*                                                                    * 10900000
.********************************************************************** 10950000
.IROUT   AIF   (&B(1)+&B(2)+&B(3) NE 1).E4                    @G381P2A  11000000
.*         CALCULATE LENGTH PARM LIST +4 FOR BRANCH AROUND              11050000
&PNAME   SETC  'P&SYSNDX.'                                        @L1A  11150000
         CNOP  0,4                                       @ZA64577 @02C  11183300
.*              REMOVE LABEL ON PREVIOUS CNOP - CAUSES DUP LABELS @02A  11216600
         AIF   ('&PARAM' EQ '' AND '&MF(1)' NE 'E').LOAD   CONSTRUCT    11250000
.*                                   BRANCH                   @ZMB0095  11300000
         AIF   ('&SYSPLIST8' NE 'YES').TRYARC                     @L2A  11305000
         AIF   (&SYSALVL LT 2).XCST3                              @L2A  11310000
         STG   1,&PNAME+16        STORE 64-BIT PLIST ADDRESSS     @L2A  11315000
         AGO   .LOAD                                              @L2A  11320000
.XCST3   ANOP                                                     @L2A  11325000
         XC    &PNAME+16(4),&PNAME+16                             @L2A  11330000
         ST    1,&PNAME+20        STORE PLIST ADDRESSS            @L2A  11335000
         AGO   .LOAD                                              @L2A  11340000
.TRYARC  ANOP                                                     @L2A  11345000
         ST    1,&PNAME+16        STORE PROGRAM PARM LIST ADDR @L1C     11350000
         AIF   ('&SYSASCE' EQ 'P').LOAD                           @L1A  11400000
         STAM  1,1,&PNAME+28      STORE PROGRAM PARM LIST ALET    @L1A  11450000
.*                                                            @G381P2A  11500000
.LOAD    ANOP                                                 @G381P2A  11550000
         &LA   1,&PNAME           PICK UP ADDR OF PARM LIST       @L1C  11600000
         B     &PNAME.E           BRANCH AROUND CONSTANTS         @L2C  11616600
         AIF   ('&SYSPLIST8' NE 'YES').NOT8                       @L2A  11633200
&PNAME   DS    0D                 PARAMETER LIST                  @L1C  11649800
         AGO   .NOT8B                                             @L2A  11666500
.NOT8    ANOP                                                     @L2A  11683200
&PNAME   DS    0F                 PARAMETER LIST                  @L1C  11700000
.NOT8B   ANOP                                                     @L2A  11725000
         AIF   (NOT &B(1)).NOEP                               @G381P2A  11750000
         DC    A(&EPNAME)         EP PARAMETER ADDRESS        @G381P2A  11800000
         AGO   .DCB    PROCESS DCB ADDRESS                    @G381P2A  11850000
.NOEP    AIF   ('&EPLOC&DE'(1,1) EQ '(').ZERODE R-FORM, GEN ZERO ADDR   11900000
.*                                                            @G381P2A  11950000
         DC    AL4(&EPLOC&DE)     EPLOC OR DE PARAMETER       @G381P2A  12000000
         AGO   .DCB    PROCESS DCB ADDRESS                    @G381P2A  12050000
.ZERODE  DC    A(0)               EPLOC OR DE PARAMETER       @G381P2A  12100000
.DCB     ANOP                                                 @G381P2A  12150000
         AIF   ('&DCB' EQ '').ZDCB  NO DCB GENERATE ZERO ADDRESS        12200000
.*                                                            @G381P2A  12250000
         AIF   ('&DCB'(1,1) EQ '(').ZDCB R-FORM DCB GEN ZERO ADDR       12300000
.*                                                            @G381P2A  12350000
         DC    AL4(&DCB)          DCB ADDRESS PARAMETER       @G381P2A  12400000
         AGO   .DCGEN    GENERATE CONSTANTS                   @G381P2A  12450000
.ZDCB    ANOP                                                 @G381P2A  12500000
         DC    AL4(0)             DCB ADDRESS PARAMETER       @G381P2A  12550000
.DCGEN   ANOP                                                 @G381P2A  12600000
         DC    AL1(1)             PARAMETER LIST FORMAT NUMBER    @L1C  12650000
         DC    AL1(0)             RESERVED                    @G381P2A  12700000
         DC    B'&B(3)&B(6)&B(4)&B(7)&B(8)&B(9)&B(12)&B(13)'  OPTIONS   12750000
.*                                                            @G860P35  12800000
         DC    AL1(0)             RESERVED                    @G381P2A  12850000
.ECHECK  ANOP                                                 @G381P2A  12900000
         AIF   ('&ERRET' EQ '').ZERRET NO ERRET GEN ZERO ADDRESS        12950000
.*                                                            @G381P2A  13000000
         AIF   ('&ERRET'(1,1) EQ '(').ZERRET R-FORM GEN ZERO ADDR       13050000
.*                                                            @G381P2A  13100000
         DC    A(&ERRET)          ERROR ADDRESS PARAMETER     @G381P2A  13150000
         DC    A(0)               PROBLEM PROGRAM PARAMETERS ADDRESS    13200000
.*                                                            @G381P2A  13250000
         AGO   .EPCHECK                                       @G381P2A  13300000
.ZERRET  DC    A(0)               ERROR ADDRESS PARAMETER     @G381P2A  13350000
         DC    A(0)               PROBLEM PROGRAM PARAMETERS ADDRESS    13400000
.*                                                            @G381P2A  13450000
.EPCHECK ANOP                                                 @G381P2A  13500000
.*                                                            @G381P2A  13550000
         DC    A(0)               ALET FOR EP/EPLOC/DE            @L1A  13600000
         DC    A(0)               ALET FOR DCB                    @L1A  13650000
         DC    A(0)               ALET FOR LINK/XCTL PLIST        @L1A  13700000
         AIF   (NOT &B(1)).ACTION  PROCESS R-FORMS                      13750000
.*                                                            @G381P2A  13800000
&EPNAME  DC    CL8'&EP'           EP PARAMETER                @G381P2A  13850000
.ACTION  ANOP                                                           13875000
&PNAME.E EQU   *                  PARAMETER LIST END              @L2A  13900000
         AIF   (&B(1)).TESTDCB  EP SPECIFIED, PROCESS DCB R-FORM        13925000
.*                                                            @G381P2A  13950000
         AIF   ('&EPLOC&DE'(1,1) NE '(').TESTDCB  PROCESS DCB R-FORM    14000000
.*                                                            @G381P2A  14050000
         &LA   0,0(0,&EPLOC(1)&DE(1)) PICKUP EPLOC OR DE PARM     @L1C  14100000
         ST    0,0(0,1)               STORE IN SUPV PARM LIST @ZA63079  14150000
         AIF   ('&SYSASCE' EQ 'P').TESTDCB                        @L1A  14200000
         AIF   ('&SYSPLIST8' EQ 'YES').TESTDCB                    @L2A  14225000
         STAM  0,0,20(1)          STORE EP/EPLOC/DE ALET          @L1A  14250000
.TESTDCB ANOP                                                 @G381P2A  14300000
         AIF   ('&DCB' EQ '').ERTEST PROCESS ERRET R-FORM     @G381P2A  14350000
         AIF   ('&DCB'(1,1) NE '(').ERTEST PROCESS ERRET R-FORM         14400000
.*                                                            @G381P2A  14450000
         &LA   0,0(0,&DCB(1))     PICKUP DCB ADDRESS PARM         @L1C  14500000
         ST    0,4(0,1)           STORE DCB ADDRESS IN SUP PARMS        14550000
         AIF   ('&SYSASCE' EQ 'P').ERTEST                         @L1A  14600000
         STAM  0,0,24(1)          STORE DCB ALET                  @L1A  14650000
.*                                                            @ZA63079  14700000
.ERTEST  ANOP                                                 @G381P2A  14750000
         AIF   ('&ERRET' EQ '').ADTEST PROCESS ADDR           @G381P2A  14800000
         AIF   ('&ERRET'(1,1) NE '(').ADTEST PROCESS ADDR     @G381P2A  14850000
         LA    0,0(0,&ERRET(1))   PICKUP ERROR ADDRESS PARM   @ZA63079  14900000
         ST    0,12(0,1)          STORE ERROR ADDRESS PARAMETER         14950000
.*                                                            @ZA63079  15000000
.ADTEST  ANOP                                                 @G381P2A  15050000
.END     MEND                                                 @G381P2A  15100000
