         MACRO                                                @G381P2A  00050000
&NAME    IHBINNRX &EP,&EPLOC,&DE,&DCB,&LSEARCH,               @G381P2A X00100000
               &GLOBAL,&ADDR,&RETURN,&CALL,&PARAM,&MF,        @G381P2A X00150000
               &ERRET=,&SF=I,&LOADPT=,&EOM=,                  @G860P35 X00155000
               &ADRNAPF=                                      @YA11577  00160000
.********************************************************************** 00165200
.*                                                                    * 00172800
.* COPYRIGHT =                                                        * 00180400
.*      LICENSED MATERIALS - PROPERTY OF IBM                          * 00187300
.*      THIS MACRO IS "RESTRICTED MATERIALS OF IBM"                   * 00194200
.*      5647-A01 (C) COPYRIGHT IBM CORP. 1981,2000                    * 00201100
.*                                                                    * 00208200
.* STATUS = HBB7703                                                   * 00214000
.*                                                                    * 00215400
.* EXTERNAL CLASSIFICATION: NONE                                      * 00216800
.* END OF EXTERNAL CLASSIFICATION:                                    * 00218200
.*                                                                    * 00219900
.* CHANGE ACTIVITY =                                                  * 00221400
.*  $01=OY56888,HBB2102,920825,PDPA: ALLOW EXPLICIT NOTATION FOR      * 00222900
.*                                   PARAMETER LIST ADDRESS       @01A* 00224400
.*                                                                    * 00226000
.********************************************************************** 00241200
         GBLC  &IHBNO                                         @G381P2A  00250000
         GBLA  &SYSALVL                                                 00275000
         LCLB  &B(14)                                         @YA11577  00300000
         LCLA  &CTR,&A,&OFFBASE,&OFFFLG,&OFFFLG2              @YA11577  00350000
         LCLC  &CHARS,&DCBVAL,&EPNAME,&ERRVAL                 @G381P2A  00400000
         SYSSTATE TEST                                                  00425000
&EPNAME  SETC  'IHB'.'&SYSNDX'                                @G381P2A  00450000
&B(1)    SETB  ('&EP' NE '')                                  @G381P2A  00500000
&B(2)    SETB  ('&EPLOC' NE '')                               @G381P2A  00550000
&B(3)    SETB  ('&DE' NE '')                                  @G381P2A  00600000
&B(4)    SETB  ('&ERRET' NE '')                               @G381P2A  00650000
&B(4)    SETB  ('&RETURN' NE '' OR &B(4))                     @G381P2A  00700000
&B(5)    SETB  0                                                        00750000
         AIF   ('&LSEARCH' EQ '').NLSER   NO LSEARCH CONTINUE @G381P2A  00800000
         AIF   ('&LSEARCH' NE 'YES' AND '&LSEARCH' NE 'NO').E6          00850000
.*                                                            @G381P2A  00900000
&B(6)    SETB  ('&LSEARCH(1)' EQ 'YES')                       @G381P2A  00950000
.********************************************************************** 00958300
.*                                                                    * 00966600
.*  CHECK FOR ERRORS IN THE SPECIFICATION OF PARAMETERS               * 00974900
.*                                                                    * 00983200
.********************************************************************** 00991500
.NLSER   ANOP                                                 @G381P2A  01000000
         AIF   ('&GLOBAL' EQ '').NGLOB GLOBAL NOT SPECIFIED   @G381P2A  01050000
.* GLOBAL CANNOT BE COMBINED WITH ADDR                        @ZMB0619  01083300
         AIF   ('&GLOBAL(1)' EQ 'YES' AND '&ADDR' NE'').E7    @ZA50556  01116600
.* GLOBAL CANNOT BE COMBINED WITH ADRNAPF                     @YA11577  01124900
         AIF   ('&GLOBAL(1)' EQ 'YES' AND '&ADRNAPF' NE'').E7B          01133200
.*                                                            @YA11577  01141500
.* FIRST OPERAND OF GLOBAL MUST BE YES OR NO                            01150000
         AIF   ('&GLOBAL(1)' NE 'YES' AND '&GLOBAL(1)' NE 'NO').E5      01200000
.* SECOND OPERAND OF GLOBAL MUST BE P OR F OR NULL                      01250000
         AIF   (N'&GLOBAL EQ 1).YGLOB    NO SECOND OPERAND OK           01300000
         AIF   ('&GLOBAL(2)' NE 'P' AND '&GLOBAL(2)' NE 'F').E5         01350000
.YGLOB   ANOP                                                 @G381P2A  01400000
&B(7)    SETB  ('&GLOBAL(1)' EQ 'YES')                        @G381P2A  01450000
&B(8)    SETB  ('&GLOBAL(1)' EQ 'YES' AND '&GLOBAL(2)' EQ 'F')          01500000
.*                                                            @G381P2A  01550000
.NGLOB   ANOP                                                 @G381P2A  01600000
&B(9)    SETB ('&ADDR' NE '')                                 @G381P2A  01650000
&B(14)   SETB ('&ADRNAPF' NE '')                              @YA11577  01675000
&B(10)   SETB  ('&CALL' EQ 'LINK' OR '&CALL' EQ 'XCTL')       @G381P2A  01700000
&B(11)   SETB  ('&CALL' EQ 'LOAD')                            @G381P2A  01750000
         AIF   ('&EOM' EQ '').NEOM        NO EOM CONTINUE     @G860P35  01755000
         AIF   ('&EOM' NE 'YES' AND '&EOM' NE 'NO').E10       @G860P35  01760000
.* EOM MUST COMBINED WITH GLOBAL                              @G860P35  01765000
         AIF   ('&EOM' EQ 'YES' AND '&GLOBAL(1)' NE 'YES').E9 @G860P35  01770000
&B(12)   SETB  ('&EOM' EQ 'YES')                              @G860P35  01775000
.NEOM    ANOP                                                 @G860P35  01780000
.* ADDR AND LOADPT OPTIONS CANNOT BE COMBINED                 @G860P35  01785000
         AIF   ('&LOADPT' NE '' AND '&ADDR' NE '').E8         @G860P35  01790000
.* ADRNAPF AND LOADPT OPTIONS CANNOT BE COMBINED              @YA11577  01791000
         AIF   ('&LOADPT' NE '' AND '&ADRNAPF' NE '').E8B     @YA11577  01792000
.* ADRNAPF AND ADDR OPTIONS CANNOT BE COMBINED                @YA11577  01793000
         AIF   ('&ADDR' NE '' AND '&ADRNAPF' NE '').E11       @YA11577  01794000
&B(13)   SETB  ('&LOADPT' NE '')                              @G860P35  01795000
         AIF   (&B(1)+&B(2)+&B(3) GT 1).E1   TOO MANY PARMS SPECIFIED   01800000
.*                                                            @G381P2A  01850000
         AIF   ('&EP' EQ '').AGONE   EP NOT SPECIFIED         @G381P2A  01900000
         AIF   ('&EP'(1,1) EQ '(').E1A  EP REG FORM NOT ALLOWED         01950000
.*                                                            @G381P2A  02000000
.AGONE   ANOP                                                 @G381P2A  02050000
         AIF   ('&SF' EQ 'L').LROUT   PROCESS L FORM          @G381P2A  02100000
&OFFFLG  SETA  (10)   COMPUTE FLAGS OFFSET                    @G381P2A  02150000
&OFFFLG2 SETA  (11)   COMPUTE FLAGS OFFSET                    @YA11577  02200000
         AIF   ('&SF' EQ 'I').IROUT   PROCESS I FORM          @G381P2A  02300000
.********************************************************************** 02316600
.*                                                                    * 02333200
.*  PROCESS SF=E FORM                                                 * 02349800
.*                                                                    * 02366400
.********************************************************************** 02383000
         CNOP  0,4                                            @ZA64577  02388600
.*                 REMOVE THE LABEL ON THE PREVIOUS STATEMENT @YA21876  02394200
         AIF   (N'&SF NE 2).E2     E FORM MUST HAVE 2 OPERANDS          02400000
.*                                                            @G381P2A  02450000
         AIF   ('&SF(1)' NE 'E').E2   E FORM MUST BE SPECIFIED          02500000
.*                                                            @G381P2A  02550000
         AIF   ('&SF'(4,1) EQ '(').ISAREG  E FORM REG SPECIFIED         02600000
.*                                                            @G381P2A  02650000
         AIF   ('&PARAM' EQ '' AND '&MF(1)' NE 'E').ACONST CONSTRUCT    02700000
.*                                   BRANCH                   @ZMB0095  02725000
         ST    1,16+&SF(2)     STORE PROBLEM PROG PARM LIST ADDR  @01C  02750000
.*                                                            @G381P2A  02800000
.ACONST  ANOP                                                 @G381P2A  02850000
         LA    1,&SF(2)           LOAD SUPV PARM LIST ADDR    @G381P2A  02900000
         AGO   .CONTA                                         @G381P2A  02950000
.E1      IHBERMAC 88,&IHBNO   TOO MANY PARAMETERS PRESENT     @G381P2A  03000000
         MEXIT                                                @G381P2A  03050000
.E1A     IHBERMAC 42,&EP      R-FORM INVALID FOR EP NAME      @G381P2A  03100000
         MEXIT                                                @G381P2A  03150000
.E2      IHBERMAC 41,,&SF,,,0   SF PARAMETER BAD              @G381P2A  03200000
         MEXIT                                                @G381P2A  03250000
.E3      IHBERMAC 72,&IHBNO   REG. NOT. W/SF=L                @G381P2A  03300000
         MEXIT                                                @G381P2A  03350000
.E4      IHBERMAC 31,&IHBNO   EP,EPLOC,DE ALL MISSING         @G381P2A  03400000
         MEXIT                                                @G381P2A  03450000
.E5      MNOTE    12,'*** IHB005 GLOBAL=&GLOBAL OPTION INVALID'         03500000
.*                                                            @G381P2A  03550000
         MEXIT                                                @G381P2A  03600000
.E6      MNOTE    12,'*** IHB006 LSEARCH MUST BE YES OR NO'   @G381P2A  03650000
         MEXIT                                                @G381P2A  03700000
.E7      MNOTE    12,'*** IHB007 COMBINED GLOBAL AND ADDR OPTIONS'      03712500
         MEXIT                                                @ZMB0619  03737500
.E7B     MNOTE    12,'*** IHB007 COMBINED GLOBAL AND ADRNAPF OPTIONS'   03737800
.*                                                            @YA11577  03738100
         MEXIT                                                @YA11577  03738400
.E8      MNOTE    12,'*** IHB008 COMBINED LOADPT AND ADDR OPTIONS'      03738800
.*                                                            @G860P35  03740100
         MEXIT                                                @G860P35  03741400
.E8B     MNOTE    12,'*** IHB008 COMBINED LOADPT AND ADRNAPF OPTIONS'   03741700
.*                                                            @YA11577  03742000
         MEXIT                                                @YA11577  03742300
.E9      MNOTE    12,'*** IHB009 EOM MUST APPEAR WITH GLOBAL OPTION'    03742700
.*                                                            @G860P35  03744000
         MEXIT                                                @G860P35  03745300
.E10     MNOTE    12,'*** IHB010 EOM MUST BE YES OR NO'       @G860P35  03746600
         MEXIT                                                @G860P35  03747900
.E11     MNOTE    12,'*** IHB008 COMBINED ADDR AND ADRNAPF OPTIONS'     03748400
.*                                                            @YA11577  03748900
         MEXIT                                                @YA11577  03749400
.ISAREG  ANOP                                                 @G381P2A  03750000
         AIF   ('&SF(2)' EQ '(1)').E2 R1 NOT ALLOWED          @G381P2A  03800000
&A       SETA  K'&SF-6  CALCULATE PTR TO REGISTER IN STRING   @G381P2A  03850000
&CHARS   SETC  '&SF'(5,&A) EXTRACT REGISTER SPECIFIED         @G381P2A  03900000
         AIF   ('&PARAM' EQ '' AND '&MF(1)' NE 'E').BCONST CONSTRUCT    03950000
.*                                   BRANCH                   @ZMB0095  03975000
         ST    1,16(&CHARS)       STORE PROBLEM PROG PARM LIST ADDR     04000000
.*                                                            @G381P2A  04050000
.BCONST  ANOP                                                 @G381P2A  04100000
         LA    1,0(&CHARS)        LOAD SUPV PARM LIST ADDR    @G381P2A  04150000
.CCONST  ANOP                                                 @G381P2A  04200000
.CONTA   AIF   (NOT &B(1)).CONTB  IF NO EP SPECIFIED          @G381P2A  04250000
         LA    0,*+8              LOAD EP ADDR IN REG 0       @G381P2A  04300000
         B     *+12               BRANCH AROUND EP            @G381P2A  04350000
         DC    CL8'&EP'           EP SYMBOL                   @G381P2A  04400000
         ST    0,0(0,1)           STORE EP ADDR IN SUPV PARMLIST        04450000
.*                                                            @G381P2A  04500000
         AGO   .DCBCHK            CHECK FOR DCB               @G381P2A  04550000
.CONTB   AIF   (&B(2)+&B(3) EQ 0).DCBCHK NEITHER DE NOR EPLOC SPECIFIED 04600000
.*                                                            @G381P2A  04650000
         AIF   ('&EPLOC&DE'(1,1) EQ '(').ISAREGA  PROCESS REG FORM      04700000
.*                                                            @G381P2A  04750000
         LA    0,&EPLOC&DE        PICK UP SUPV PARMLIST       @G381P2A  04800000
         ST    0,0(0,1)           STORE IN SUPV PARMLIST      @G381P2A  04850000
         AGO   .DECHK                                         @G381P2A  04900000
.ISAREGA LA    0,0(0,&EPLOC(1)&DE(1)) PICKUP EPLOC OR DE PARM @ZA63079  04933300
         ST    0,0(0,1)               STORE IN SUPV PARMLIST  @ZA63079  04966600
.DECHK   AIF   (NOT &B(3)).DCBCHK  DE NOT SPECIFIED           @G381P2A  05000000
         OI    &OFFFLG.(1),X'80'  SET DE SWITCH BIT ON        @G381P2A  05050000
.DCBCHK  AIF   ('&DCB' EQ '').LOADCK PROCESS ADDR OPERAND     @G381P2A  05100000
         AIF   ('&DCB'(1,1) EQ '(').ISAREGB REG FORM          @G381P2A  05150000
         LA    0,&DCB             PICK UP DCB PARM            @G381P2A  05200000
         AGO   .STORDCB                                       @G381P2A  05250000
.ISAREGB LA    0,0(0,&DCB(1))     PICK UP DCB PARM            @G381P2A  05300000
.STORDCB ST    0,4(0,1)           STORE DCB PARAMETER IN LIST @G381P2A  05350000
.LOADCK  AIF   ('&CALL' NE 'LOAD').RETCK  NOT LOAD, PROCESS ERRET       05400000
.*                                                            @G381P2A  05450000
         AIF   ('&LOADPT' EQ '').EOMCHK    PROCESS EOM OPTION @G860P35  05452700
         AIF   ('&LOADPT'(1,1) EQ '(').LDRFORM   R-FORM       @G860P35  05455400
         LA    0,&LOADPT          PICK UP LOADPT ADDRESS      @G860P35  05458100
         ST    0,12(0,1)          STORE ADDRESS IN PARM LIST  @G860P35  05460800
         AGO   .LDPTBIT      SET DIRECTED LOAD POINT BIT      @G860P35  05463500
.LDRFORM ANOP                                                 @G860P35  05466200
         LA    0,0(0,&LOADPT(1))   PICKUP LOADPT ADDRESS PARM @ZA63079  05468000
         ST    0,12(0,1)           STORE ADDRESS IN PARM LIST @ZA63079  05469800
.LDPTBIT ANOP                                                 @G860P35  05471600
         OI    &OFFFLG.(1),X'01'   SET LOADPT SPECIFIED BIT   @G860P35  05474300
.EOMCHK  ANOP                                                 @G860P35  05477000
         AIF   ('&EOM' EQ '').ADDRCHK  PROCESS ADDR OPTION    @G860P35  05479700
         AIF   ('&EOM' EQ 'NO').NOEOM  TURN OFF EOM BIT       @G860P35  05482400
         OI    &OFFFLG.(1),X'02'  TURN ON EOM SPECIFIED BIT   @G860P35  05485100
         AGO   .ADDRCHK      SET DIRECTED LOAD BIT            @G860P35  05487800
.NOEOM   ANOP                                                 @G860P35  05490500
         NI    &OFFFLG.(1),X'FD'  TURN OFF EOM REQUESTED BIT  @G860P35  05493200
.ADDRCHK ANOP                                                           05495900
         AIF   ('&ADDR' EQ '').ADDNCHK   PROCESS ADRNAPF      @YA11577  05500000
         AIF   ('&ADDR'(1,1) EQ '(').ADRFORM  REG FORM        @G381P2A  05550000
         L     0,&ADDR            PICK UP LOAD ADDRESS        @G381P2A  05600000
         ST    0,12(0,1)          STORE LOAD ADDRESS IN PARM LIST       05650000
.*                                                            @G381P2A  05700000
         AGO   .ADRBIT       SET DIRECTED LOAD BIT            @G381P2A  05750000
.ADRFORM ANOP                                                 @G381P2A  05800000
         LA    0,0(0,&ADDR(1))    PICKUP LOAD ADDRESS PARM    @ZA63079  05837500
         ST    0,12(0,1)          STORE LOAD ADDRESS IN PARM LIST       05875000
.*                                                            @ZA63079  05912500
.ADRBIT  ANOP                                                 @G381P2A  05950000
         OI    &OFFFLG.(1),X'04'  TURN ON ADDRESS SPECIFIED BIT         06000000
.*                                                            @G381P2A  06050000
.ADDNCHK ANOP                                                 @YA11577  06053300
         AIF   ('&ADRNAPF' EQ '').GLOBCK PROCESS GLOBAL       @YA11577  06056600
         AIF   ('&ADRNAPF'(1,1) EQ '(').ADNFORM  REG FORM     @YA11577  06059900
         L     0,&ADRNAPF         PICK UP LOAD ADDRESS        @YA11577  06063200
         ST    0,12(0,1)          STORE LOAD ADDRESS IN PARM LIST       06066500
.*                                                            @YA11577  06069800
         AGO   .ADNBIT       SET DIRECTED LOAD BIT            @YA11577  06073100
.ADNFORM ANOP                                                 @YA11577  06076400
         LA    0,0(0,&ADRNAPF(1))       LOAD ADDRESS          @YA11577  06079700
         ST    0,12(0,1)          STORE LOAD ADDRESS IN PARM LIST       06083000
.*                                                            @YA11577  06086300
.ADNBIT  ANOP                                                 @YA11577  06089600
         OI    &OFFFLG2.(1),X'80'  TURN ON ADRNAPF SPECIFIED BIT        06092900
.*                                                            @YA11577  06096200
.GLOBCK  ANOP                                                 @G381P2A  06100000
         AIF   ('&GLOBAL' EQ '').RFLAG                                  06150000
         AIF   ('&GLOBAL(1)' EQ 'NO').GNO TURN OFF GLOBAL     @G381P2A  06200000
         AIF   ('&GLOBAL(2)' NE 'F').GYESP PROCESS GLOBAL PAGABLE       06250000
.*                                                            @G381P2A  06300000
         OI    &OFFFLG.(1),X'18'  TURN ON GLOBAL FIXED        @G381P2A  06350000
         AGO   .RFLAG                                                   06400000
.GYESP   ANOP                                                 @G381P2A  06450000
         OI    &OFFFLG.(1),X'10'  TURN ON GLOBAL              @G381P2A  06500000
         NI    &OFFFLG.(1),X'F7'  FIXED/PAGABLE BIT IS OFF    @G381P2A  06550000
         AGO   .RFLAG                                                   06600000
.GNO     ANOP                                                 @G381P2A  06650000
         NI    &OFFFLG.(1),X'E7'  TURN OFF GLOBAL             @G381P2A  06700000
         AGO   .RFLAG                                         @G381P2A  06750000
.RETCK   AIF   ('&ERRET' EQ '').RFLAG                                   06800000
         AIF   ('&ERRET'(1,1) EQ '(').RFORM  REG FORM         @G381P2A  06850000
         LA    0,&ERRET           PICK UP RETURN ADDRESS      @G381P2A  06900000
         ST    0,12(0,1)          STORE RETURN ADDRESS IN PARM LIST     06950000
.*                                                            @G381P2A  07000000
         AGO   .RFLAG                                         @G381P2A  07050000
.RFORM   LA    0,0(0,&ERRET(1))   PICKUP RETURN ADDRESS PARM  @ZA63079  07100000
         ST    0,12(0,1)          STORE RETURN ADDRESS IN PARM LIST     07150000
.*                                                            @ZA63079  07200000
.RFLAG   ANOP                                                 @G381P2A  07550000
         AIF   (NOT &B(4)).LCHK                               @G381P2A  07600000
         OI    &OFFFLG.(1),X'20'  TURN ON RETURN REQUESTED BIT          07650000
.*                                                            @G381P2A  07700000
.LCHK    AIF   ('&LSEARCH' EQ '').END                         @G381P2A  07750000
         AIF   ('&LSEARCH' EQ 'NO').LNO                       @G381P2A  07800000
         OI    &OFFFLG.(1),X'40'  TURN ON LSEARCH REQUESTED BIT         07850000
.*                                                            @G381P2A  07900000
         AGO   .END                                           @G381P2A  07950000
.LNO     ANOP                                                 @G381P2A  08000000
         NI    &OFFFLG.(1),X'BF'  TURN OFF LSEARCH REQUESTED BIT        08050000
.*                                                            @G381P2A  08100000
         AGO   .END                                           @G381P2A  08150000
.********************************************************************** 08166600
.*                                                                    * 08183200
.*  PROCESS SF=L FORM                                                 * 08199800
.*                                                                    * 08216400
.********************************************************************** 08233000
.LROUT   CNOP  0,4                                            @G381P2A  08250000
         AIF   (NOT &B(1)).CKEPLOC                            @G381P2A  08550000
&NAME    DC    AL4(&EPNAME)       ADDRESS OF EP PARAMETER     @G381P2A  08600000
         AGO   .CHKDCB                                        @G381P2A  08650000
.CKEPLOC AIF   (&B(2)+&B(3) EQ 0).PUTZERO                     @G381P2A  08700000
         AIF   ('&EPLOC&DE'(1,1) EQ '(').E3                   @G381P2A  08750000
&NAME    DC    AL4(&EPLOC&DE)     EPLOC OR DE PARAMETER       @G381P2A  08800000
         AGO   .CHKDCB                                        @G381P2A  08850000
.PUTZERO ANOP                                                 @G381P2A  08900000
&NAME    DC    A(0)               ADDRESS OF EP OR DE PARAMETER         08950000
.*                                                            @G381P2A  09000000
.CHKDCB  AIF   ('&DCB' EQ '').ZERODCB                         @G381P2A  09050000
         AIF   ('&DCB'(1,1) EQ '(').E3                        @G381P2A  09100000
&DCBVAL  SETC  '&DCB'                                         @G381P2A  09150000
         AGO   .CHKERR                                        @G381P2A  09200000
.ZERODCB ANOP                                                 @G381P2A  09250000
&DCBVAL  SETC  '0'                                            @G381P2A  09300000
.CHKERR  AIF   ('&ERRET' EQ '').ZEROERR                       @G381P2A  09350000
         AIF   ('&ERRET'(1,1) EQ '(').E3                      @G381P2A  09400000
&ERRVAL  SETC  '&ERRET'                                       @G381P2A  09450000
         AGO   .DOLIST                                        @G381P2A  09500000
.ZEROERR ANOP                                                 @G381P2A  09550000
&ERRVAL  SETC  '0'                                            @G381P2A  09600000
.DOLIST  ANOP                                                 @G381P2A  09650000
         DC    AL4(&DCBVAL)       DCB ADDRESS PARAMETER       @G381P2A  09700000
         DC    AL1(0)             PARAMETER LIST FORMAT NUMBER          09750000
.*                                                            @G381P2A  09800000
         DC    AL1(0)             RESERVED                    @G381P2A  09850000
         DC    B'&B(3)&B(6)&B(4)&B(7)&B(8)&B(9)&B(12)&B(13)' OPTIONS    09900000
.*                                                            @G860P35  09950000
         AIF   ('&CALL' EQ 'LOAD').OPTION1     LOAD OPTIONS   @YA11577  09975000
         DC    AL1(0)             RESERVED                    @G381P2A  10000000
         AGO   .NLOAD1                                        @YA11577  10010000
.OPTION1 ANOP                                                 @YA11577  10020000
         DC    B'&B(14).0000000'  OPTIONS                     @YA11577  10030000
.NLOAD1  ANOP                                                 @YA11577  10040000
         AIF   ('&CALL' NE 'LOAD').ERRCK  NOT LOAD, PROCESS ERRET       10050000
         AIF   ('&LOADPT' EQ '').NOLDPT     CHECK FOR ADDR    @G860P35  10058300
         AIF   ('&LOADPT'(1,1) EQ '(').E3   NO R-FORM ALLOWED @G860P35  10066600
         DC    A(&LOADPT)                   LOADPT PARAMETER  @G860P35  10074900
         AGO   .CHKEP                                         @G860P35  10083200
.NOLDPT  ANOP                                                 @G860P35  10091500
.*                                                            @G381P2A  10100000
         AIF   ('&ADDR' EQ '' AND '&ADRNAPF' EQ '').NOADDR    @YA11577  10150000
.*                                                            @G381P2A  10200000
         AIF   ('&ADDR' EQ '').NOADDN                         @YA11577  10216600
.*                                                            @YA11577  10233200
         AIF   ('&ADDR'(1,1) EQ '(').E3 NO  R-FORM ALLOWED    @G381P2A  10250000
         AGO   .NOADDN2                                       @YA11577  10266600
.NOADDN  ANOP                                                 @YA11577  10283200
         AIF   ('&ADRNAPF'(1,1) EQ '(').E3   NO R-FORM        @YA11577  10299800
.NOADDN2 ANOP                                                 @YA11577  10316400
         DC    A(&ADDR&ADRNAPF)   LOAD ADDRESS PARAMETER      @YA11577  10333000
         AGO   .CHKEP                                         @G381P2A  10350000
.NOADDR  ANOP                                                 @G381P2A  10400000
         DC    A(0)               EXPLICIT LOAD OR LOADPT     @G860P35  10450000
         AGO   .CHKEP                                         @G381P2A  10500000
.ERRCK   ANOP                                                 @G381P2A  10550000
         AIF   ('&ERRET' EQ '').PASSERR                       @G381P2A  10700000
         DC    A(&ERRVAL)         RETURN ADDRESS PARAMETER    @G381P2A  10750000
         DC    A(0)               PROBLEM PROGRAM PARAMETERS ADDRESS    10800000
.*                                                            @G381P2A  10850000
         AGO   .CHKEP                                         @G381P2A  10900000
.PASSERR ANOP                                                 @G381P2A  10950000
         DC    A(0)               RETURN ADDRESS PARAMETER    @G381P2A  11000000
         DC    A(0)               PROBLEM PROGRAM PARAMETERS ADDRESS    11050000
.*                                                            @G381P2A  11100000
.CHKEP   AIF   (NOT &B(1)).END                                @G381P2A  11150000
&EPNAME  DC    CL8'&EP'           EP PARAMETER                @G381P2A  11200000
         AGO   .END                                           @G381P2A  11250000
.********************************************************************** 11266600
.*                                                                    * 11283200
.*  PROCESS SF=I FORM                                                 * 11299800
.*                                                                    * 11316400
.********************************************************************** 11333000
.IROUT   AIF   (&B(1)+&B(2)+&B(3) NE 1).E4                    @G381P2A  11350000
.*         CALCULATE LENGTH PARM LIST +4 FOR BRANCH AROUND              11400000
&CTR     SETA  16+8*&B(1)   3 WORDS LONG +2 FOR EP            @G381P2A  11450000
&CTR     SETA  &CTR+8*&B(10) 5 WORDS LONG IF LINK OR XCTL     @G381P2A  11500000
&CTR     SETA  &CTR+4*&B(11) 4 WORDS LONG IF LOAD             @G381P2A  11550000
         CNOP  0,4                                            @ZA64577  11583300
.*                 REMOVE THE LABEL ON THE PREVIOUS STATEMENT @YA21876  11616600
         AIF   ('&PARAM' EQ '' AND '&MF(1)' NE 'E').LOAD   CONSTRUCT    11650000
.*                                   BRANCH                   @ZMB0095  11675000
         ST    1,*+28             STORE PROGRAM PARM LIST ADDR          11700000
.*                                                            @G381P2A  11750000
.LOAD    ANOP                                                 @G381P2A  11800000
         AIF   (&SYSALVL GT 0).AL1A                                     11825000
         LA    1,*+8              PICK UP ADDR OF PARM LIST   @G381P2A  11850000
         B     *+&CTR             BRANCH AROUND CONSTANTS     @G381P2A  11900000
         AGO   .AL1B                                          @G381P2A  11910000
.AL1A    ANOP                                                 @G381P2A  11920000
         BRAS  1,*+&CTR           PICK UP ADDR OF PARM LIST             11930000
.AL1B    ANOP                                                 @G381P2A  11940000
         AIF   (NOT &B(1)).NOEP                               @G381P2A  11950000
         DC    A(&EPNAME)         EP PARAMETER ADDRESS        @G381P2A  12000000
         AGO   .DCB    PROCESS DCB ADDRESS                    @G381P2A  12050000
.NOEP    AIF   ('&EPLOC&DE'(1,1) EQ '(').ZERODE R-FORM, GEN ZERO ADDR   12100000
.*                                                            @G381P2A  12150000
         DC    AL4(&EPLOC&DE)     EPLOC OR DE PARAMETER       @G381P2A  12200000
         AGO   .DCB    PROCESS DCB ADDRESS                    @G381P2A  12250000
.ZERODE  DC    A(0)               EPLOC OR DE PARAMETER       @G381P2A  12300000
.DCB     ANOP                                                 @G381P2A  12350000
         AIF   ('&DCB' EQ '').ZDCB  NO DCB GENERATE ZERO ADDRESS        12400000
.*                                                            @G381P2A  12450000