         MACRO                                                          00050000
&NAME    IHBINNRA  &A,&B,&C,&D,&E                                  LC0A 00100000
.*0000000360                                                       LC0A 00150000
         LCLA  &ASUM                                              19015 00200000
         LCLB  &BIT(2)                                            19015 00250000
         LCLC  &GVALU                                              LC0A 00300000
&GVALU   SETC  'IHB'.'&SYSNDX'                                     LC0A 00350000
         AIF   ('&E' EQ '').NOPT                                  19015 00400000
&BIT(1)  SETB  ('&E' EQ 'REWIND')                                 19015 00450000
&BIT(2)  SETB  ('&E' EQ 'LEAVE')                                  19015 00500000
&ASUM    SETA  &BIT(1)*32+&BIT(2)*48                              19015 00550000
         AIF   ('&A' EQ '(1)' OR '&A'(1,1) EQ '(').LDREG          19015 00600000
         CNOP  0,4                                                19015 00650000
&NAME    BAL   1,*+8                    BR AROUND LIST            19015 00700000
         DC    AL1(&ASUM)               OPTION BYTE               19015 00750000
         DC    AL3(&A(1))                                         19015 00800000
         L     1,0(1,0)                 LOAD REG 1               YM1995 00850000
         AGO   .END                                               19015 00900000
.LDREG   ANOP                                                     19015 00950000
         AIF   ('&A' EQ '(1)').ORIT                               19015 01000000
         CNOP  0,4                                                19015 01050000
&NAME    BAL   1,*+8                    BR AROUND LIST            19015 01100000
         DC    AL1(&ASUM)               OPTION BYTE               19015 01150000
         DC    AL3(0)                                             19015 01200000
         L     1,0(1,0)                 LOAD R 1 WITH OPTION BYTEYM1995 01250000
         OR    1,&A(1)                  OR IN DCB ADDRESS         19015 01300000
         AGO   .END                                               19015 01350000
.ORIT    ANOP                                                     19015 01400000
         CNOP  0,4                                                19015 01450000
&NAME    O     1,*+8                    SET OPTION BYTE IN REG 1  19015 01500000
         B     *+8                                                19015 01550000
         DC    AL1(&ASUM)               OPTION BYTE               19015 01600000
         DC    AL3(0)                                             19015 01650000
         AGO   .END                                               19015 01700000
.NOPT    AIF   ('&A' EQ '' OR '&A' EQ '(1)').NAMEIT               19015 01750000
         AIF   ('&A'(1,1) EQ '(').REGA                                  01800000
         AIF   ('&C' NE '').HOH1                                   LC0A 01850000
&NAME    LA    1,&A                              LOAD PARAMETER REG 1   01900000
         AGO   .CHKB                                                    01950000
.REGA    ANOP                                                           02000000
&NAME    LR    1,&A(1)                           LOAD PARAMETER REG 1   02050000
         AGO   .CHKB                                                    02100000
.NAMEIT  AIF   ('&NAME' EQ '').CHKB                                     02150000
&NAME    DS    0H                                                       02200000
.CHKB    AIF   ('&B' EQ '' OR '&B' EQ '(0)').END                        02250000
         AIF   ('&B'(1,1) EQ '(').REGB                                  02300000
         AIF   ('&A' EQ '').GEN                                    LC0A 02350000
         AIF   ('&D' EQ '1').END                                   LC0A 02400000
.GEN     ANOP                                                      LC0A 02450000
         LA    0,&B                              LOAD PARAMETER REG 0   02500000
         AGO   .END                                                     02550000
.HOH1    ANOP                                                      LC0A 02600000
         AIF   ('&C' EQ '1').H1                                    LC0A 02650000
&NAME    L     0,&GVALU  LOAD FOR HIARCHY ZERO                     LC0A 02700000
         AGO   .HCHK                                               LC0A 02750000
.H1      ANOP                                                      LC0A 02800000
&NAME    L     0,&GVALU.A    LOAD FOR HIARCHY ONE                  LC0A 02850000
.HCHK    ANOP                                                      LC0A 02900000
         CNOP  2,4                                                 LCOA 02950000
         LA    1,&A                                                LC0A 03000000
         OR    1,0                                                 LC0A 03050000
         AIF   ('&D' NE '1').TTT                                   LC0A 03100000
         LA    0,*+8                                               LC0A 03150000
         B     *+16                                                LC0A 03200000
         DC    CL8'&B'                                             LC0A 03250000
         AGO   .SSS                                                LC0A 03300000
.TTT     ANOP                                                      LC0A 03350000
         B     *+8                                                 LC0A 03400000
.SSS     AIF   ('&C' EQ '1').L1                                    LC0A 03450000
&GVALU   EQU   *                                                   LC0A 03500000
         DC    X'01000000'                                         LC0A 03550000
         AGO   .CHKB                                               LC0A 03600000
.L1      ANOP                                                      LC0A 03650000
&GVALU.A EQU   *                                                   LC0A 03700000
         DC    X'02000000'                                         LC0A 03750000
         AGO   .CHKB                                               LC0A 03800000
.REGB    LR    0,&B(1)                           LOAD PARAMETER REG 0   03850000
.END     MEND                                                           03900000
