         MACRO                                                          00038100
&NAME    IHBRDWRA  &RPL=,&IHBRW=,&ACB=,&AREA=,&AREALEN=,&RECLEN=,      *00076200
               &AAREA=,&AAREALN=,&ARECLEN=,&ECB=,&EXIT=,&CODESEL=,     *00114300
               &OPTCD=,&ARG=,&NIB=,&BRANCH=,&OBSQVAL=,&SIGDATA=,       *00152400
               &RESPOND=,&CONTROL=,&CHNGDIR=,&SSENSEO=,&STYPE=,        *00190500
               &SEQNO=,&USENSEO=,&IBSQVAL=,&RTYPE=,&IBSQAC=,&SSENSMO=, *00228600
               &OBSQAC=,&POST=,&CHAIN=,&OPTION=,&SCANOPT=,&BRACKET=,   *00266700
               &CRYPT=,&THRDPTY=,&SONCODE=,&PSTIMER=,&MAXSESS=          00304800
.* /***** START OF SPECIFICATIONS ************************************/ 00342900
.* /*                                                                */ 00381000
.* /*  MACRO NAME: IHBRDWRA                                          */ 00419100
.* /*                                                                */ 00457200
.* /*  DESCRIPTIVE NAME: INNER INTERFACE MACRO FOR API REQUEST       */ 00495300
.* /*                    MACROS                                      */ 00533400
.* /*                                                                */ 00571500
.* /*  COPYRIGHT: LICENSED MATERIALS - PROPERTY OF IBM               */ 00609600
.* /*                                                                */ 00647700
.* /*             THIS PRODUCT CONTAINS "RESTRICTED MATERIALS OF IBM"*/ 00685800
.* /*                                                                */ 00723900
.* /*             5695-117 (C) COPYRIGHT IBM CORP. 1977, 1993.       */ 00762000
.* /*                                                                */ 00800100
.* /*             U.S. GOVERNMENT USERS RESTRICTED RIGHTS -          */ 00838200
.* /*             USE, DUPLICATION OR DISCLOSURE RESTRICTED BY       */ 00876300
.* /*             GSA ADP SCHEDULE CONTRACT WITH IBM CORP.           */ 00914400
.* /*                                                                */ 00952500
.* /*                                                                */ 00990600
.* /*                                                                */ 01028700
.* /*  FUNCTION: GENERATES IN-LINE CODE FOR THE FOLLOWING API        */ 01066800
.* /*            REQUEST MACROS THAT USE AN RPL:  CHANGE, CLSDST,    */ 01104900
.* /*            INQUIRE, INTRPRET, OPNDST, OPNSEC, RECEIVE,         */ 01143000
.* /*            REQSESS, RESETSR, SEND, SESSIONC, SETLOGON,         */ 01181100
.* /*            SIMLOGON, AND TERMSESS.  THE GENERATED              */ 01219200
.* /*            CODE LOADS THE RPL ADDRESS INTO REGISTER 1,         */ 01257300
.* /*            MODIFIES RPL FIELDS AS INDICATED BY THE RPL         */ 01295400
.* /*            MODIFIERS ON THE REQUEST MACRO, LOADS A             */ 01333500
.* /*            REQUEST CODE INTO REGISTER ZERO, AND BRANCHES       */ 01371600
.* /*            TO THE INTERFACE ROUTINE WHOSE ADDRESS IS IN        */ 01409700
.* /*            THE ACB LOCATED VIA THE RPL.  ANY CODE TO           */ 01447800
.* /*            MODIFY THE RPL IS BYPASSED IF THE RPL IS            */ 01485900
.* /*            ALREADY ACTIVE.                                     */ 01524000
.* /*                                                                */ 01562100
.* /*  NOTES: AS FOLLOW                                              */ 01600200
.* /*      1. RPL KEYWORDS LEVENT AND GEVENT ARE VALID               */ 01638300
.* /*             FOR OS/VS2 ONLY                                    */ 01676400
.* /*                                                                */ 01714500
.* /*  PROCESSOR: ASSEMBLER                                          */ 01752600
.* /*                                                                */ 01790700
.* /*  CREATED BY: MACRO DEVELOPMENT TEAM                            */ 01828800
.* /*                                                                */ 01866900
.* /*  INTERNAL MACROS: NONE                                         */ 01905000
.* /*                                                                */ 01943100
.* /*  EXTERNAL REFERENCES: NONE                                     */ 01981200
.* /*                                                                */ 02019300
.* /*  CHANGE ACTIVITY:                                              */ 02057400
.* /*  CHANGE 01 - 01/19/77 - ADDED QUEUED RESPONSE SUPPORT  @D34EKMP*/ 02095500
.* /*  CHANGE 02 - 02/16/77 - ADDED CONTROL SBI/BIS SUPPORT  @D34EKMP*/ 02133600
.* /*  CHANGE 03 - 04/27/77 - CORRECTED CONTROL SDT SUPPORT  @PI10125*/ 02171700
.* /*  CHANGE 04 - 05/25/77 - CORRECTED RPL SIGDATA SUPPORT  @VS45960*/ 02209800
.* /*  CHANGE 05 - 10/26/77 - CORRECTED INQ SESSKEY SUPPORT  @XM30862*/ 02247900
.* /*  CHANGE 06 - 06/15/77 - ADDED ENCR KEYWORD SUPPORT     @ZM35828*/ 02286000
.* /*  CHANGE 07 - 08/09/77 - CHANGE ENCR TO CRYPT           @D440518*/ 02324100
.* /*  CHANGE 08 - 01/20/78 - FIXED SETTING OF CRYPT BIT     @XM31389*/ 02362200
.* /*  CHANGE 09 - 05/09/80 - SYSROUTE OF OX26398            @ZA46611*/ 02400300
.* /*  CHANGE 10 - 12/23/80 - SUPPORT OF DCR4747.00          @D5B4747*/ 02438400
.* /*  CHANGE 11 - 12/08/80 - SUPPORT OF DCR4747.02          @D5B4747*/ 02476500
.* /*  CHANGE 12 - 01/20/81 - SUPPORT OF PTM8628             @P5Z8628*/ 02514600
.* /*  CHANGE 13 - 01/22/81 - SUPPORT OF PTM8733             @P5B8733*/ 02552700
.* /*  CHANGE 14 - 01/29/81 - SUPPORT OF DCR4790             @D5P4790*/ 02590800
.* /*  CHANGE 15 - 02/27/81 - SUPPORT OF PTM8805             @P5Z8805*/ 02628900
.* /*  CHANGE 16 - 03/06/81 - SUPPORT OF PTM8891             @P5P8891*/ 02667000
.* /*  CHANGE 17 - 12/03/82 - PTM P011983 (APAR OZ67334)     @P011983*/ 02705100
.* /*  CHANGE 18 - 03/01/83 - XRF SUPPORT                    @R489301*/ 02743200
.* /*  CHANGE 19 - 09/09/83 - XRF SUPPORT                    @R489306*/ 02781300
.* /*  CHANGE 20 - 11/30/83 - DCR 4911.00                    @R491100*/ 02819400
.* /*  CHANGE 21 - 01/09/84 - DCR 4911.01                    @R491101*/ 02857500
.* /*  CHANGE 22 - 02/13/84 - PTM P014769                    @P014769*/ 02895600
.* /*  CHANGE 23 - 03/27/84 - PTM P015113                    @P015113*/ 02933700
.* /*  CHANGE 24 - 06/11/84 - DCR 4893.20                    @R489320*/ 02971800
.* /*  CHANGE 25 - 11/01/85 - DCR5048 QALL,QSESSLIM,QNOTENAB @R504800*/ 03009900
.* /*  CHANGE 26 - 07/14/87 - APAR OY06517 - OPTSCAN NOT CHECKING FOR*/ 03048000
.* /*                         NULL PARAMETERS PASSED         @OY06517*/ 03086100
.* /*                                                                */ 03124200
.* /* $MAC(IHBRDWRA),COMP(API),PROD(VTAM): Inner interface macro for */ 03162300
.* /*                                      API requests              */ 03200400
.* /*                                                                */ 03238500
.* /* FLAG REASON   RELEASE DATE   ORIGIN  FLAG DESCRIPTORS          */ 03276600
.* /* ---- -------- ------- ------ ------  ------------------------- */ 03314700
.* /* $F1= FM8@@CLD HVT3303 890116 109772: RCR0006 MTS API Support   */ 03352800
.* /* $BB= ACC@@AMS HVT3401 891106 615520: PL/AS CONVERSION          */ 03390900
.* /* $B1= AP@@@CLD HVT3401 890418 496698: Persistent LU-LU Sessions */ 03429000
.* /* $V1= P078866  HVT3401 900622 496698: OPTCD4 not contiguous w/5 */ 03467100
.* /* $KF= JN@@@CLD NQNAME1 910521 591683: Enhanced NQN Support      */ 03505200
.* /* $01= OY36649  HVT3431 911014 349122: QUEUED SESSION TERMINATION*/ 03543300
.* /* $02= OY55765  VM341   920723 787924: Declare &PLOPT4 to correct*/ 03581400
.* /*                                      ASSEMBLER XF error        */ 03619500
.* /* $T1= P100451  HATAPPN 920728 879315: PSTIMER setting problems  */ 03657600
.* /* $T2= P104866  HATAPPN 921002 879315: Restrict OPT4 setting     */ 03695700
.* /* $T3= P103312  HATAPPN 921008 879315: OPTCD=NQN policing        */ 03733800
.* /* $KG= P105521  HATAPPN 921103 460208: CHNGDIR=NREQ/REQ REMOVAL  */ 03771900
.* /* $T4= P105823  HATAPPN 921113 879315: CORRECTIONS TO P105521    */ 03810000
.* /* $I1= FG@@@MST GENRES  921113 879315: Generic Resource          */ 03848100
.* /* $03= OY62380  SNAIP   930330 358168: Allow CHNGDIR=NREQ to be  */ 03886200
.* /*                                      specified though it is    */ 03924300
.* /*                                      ignored (still issued by  */ 03962400
.* /*                                      CICS)                     */ 04000500
.* /* $U2= P109955  GENRES  930812 879315: Check new OPTCDs by macro */ 04038600
.* /* $U3= P110087  GENRES  930818 879315: Downward compatibility    */ 04076700
.* /* $U4= P109285  KEEPFRR 931104 879315: Implement FZKDR001, allow */ 04114800
.* /*                                      OPTCD=KEEPSRB/NKEEPSRB    */ 04152900
.* /* $04= OY67066  EMERALD 940202 358168: Add support for INQUIRE   */ 04191000
.* /*                                      OPTCD=STATUS (AE fix for  */ 04229100
.* /*                                      OY63087)                  */ 04267200
.* /* $D1= IT@@@MST TSOGR   941102 062811: Add OPTCD=GNAMESUB & add  */ 04279900
.* /*                                      PARMS=MAXSESS for SETLOGON*/ 04292600
.* /* $W1= P117054  VMVSCS  941202 879315: Conditional CS mode       */ 04305300
.* /*                                                                */ 04343400
.* /***** END OF SPECIFICATIONS **************************************/ 04381500
.*                                                                      04419600
.* A-000000-999999                                           @XL03HMV   04457700
.*                                                                      04495800
* IHBRDWRA - ACF/VTAM                                                   04533900
*                                                            @D34EKMP   04572000
* 5695-114 COPYRIGHT IBM CORP 1977,1993                                 04610100
* LICENSED MATERIAL - PROGRAM PROPERTY OF IBM                @D34EKMP   04648200
* REFER TO COPYRIGHT INSTRUCTIONS FORM NUMBER G120-2083      @D34EKMP   04686300
*                                                            @D34EKMP   04724400
         GBLB  &IHBRPLY(20)                                             04762500
         GBLC  &IHBTBL(20)                                              04800600
         GBLA  &IHBNUM                                                  04838700
         LCLA  &PLARG,&PLNIB,&PLAREA,&PLRLEN,&PLBUFL,&PLACTIV,&PLEXTDS  04876800
         LCLA  &PLOPTC1,&PLDACB,&PLECB,&PLAAREA,&PLAARLN,&PLARCLN       04914900
         LCLA  &ACBRTN,&SYN,&ASY,&POPTCD2,&POPTCD3,&OPTERR,&PLSSMO      04953000
         LCLA  &NUM,&LEN,&CNTINQ,&MSK1CTR,&MSK2CTR,&MSK3CTR,&MSK4CTR    04991100
         LCLA  &CNTSTL,&PLUSFLD                                    @B1A 05029200
         LCLA  &PLOPT4                                             @02A 05067300
.* *************** VTL ADDITIONS ****************                       05105400
         LCLA  &NM,&NUM2,&PLRH3,&PLSRTYP,&PLVTFL2,&PLCHN,&PLCNTRL       05143500
         LCLA  &PLCNTDF,&PLCNTSC,&PLOBSQV,&PLIBSQV,&PLOBSQ,&PLIBSQ      05181600
         LCLA  &PLSEQNO,&PLSSNSO,&PLUSNSO,&PLCNTDC,&PLSSEO,&PLSIGDA     05219700
         LCLA  &SCODE                                          @R491100 05257800
.* ************ END VTL ADDITIONS ***************                       05295900
         LCLB  &CA,&CS,&PASS,&RELEASE,&NERASE,&EAU,&ERASE,&NOTIFY       05334000
         LCLB  &SPEC,&ANY,&LBT,&LBM,&BLK,&COND,&UNCOND             @W1C 05372100
         LCLB  &LOCK,&ACCEPT,&ACQUIRE,&QUIESCE,&START,&STOP             05410200
         LCLB  &CONALL,&CONANY,&Q,&NQ,&LGONMSG,&DEVCHAR,&TERMS,&APPSTAT 05448300
         LCLB  &COUNTS,&RNNAME,&CIDXLAT,&TOPLGON,&BSCID,&DISPLAY        05486400
         LCLB  &RELRQ,&NRELRQ                                           05511800
         LCLB  &UNCONDL,&ACTIVE,&SESSION,&PEND      (RETIRED BITS) @D1C 05537200
         LCLB  &BIT0,&BIT01,&SPARM,&SPARM1,&SKEY                        05562600
         LCLB  &NBUFLST,&BUFFLST,&CONTCHN,&NCNTCHN             @D5B4747 05600700
         LCLB  &NLMPEO,&LMPEO,&USERRH,&NUSERRH                 @D5B4747 05638800
         LCLB  &BACKUP,&USERVAR,&FORCED                        @R489320 05676900
         LCLB  &NBACKUP                                        @R489301 05715000
         LCLB  &SONCD,&NSONCD,&UNBIND,&SENSE,&NSENSE,&HOLD     @R491100 05753100
         LCLB  &RSPQUE,&NRSPQU                                 @R491101 05791200
         LCLB  &MTS,&NMTS                                          @F1A 05829300
         LCLB  &TERMQ                                              @01A 05867400
         LCLB  &STATUS                                             @04A 05905500
         LCLB  &MXSES                                              @D1A 05924500
.* *************** VTL ADDITIONS ****************                       05943600
         LCLB  &KEEP,&TRUNC,&NIBTK                                      05981700
         LCLB  &FMHDR,&NFMHDR                                           06019800
         LCLB  &KEEP1,&TRUNC1,&NIBTK1,&FMHDR1                           06057900
         LCLC  &OPT1,&OPT,&CHAR1,&CHAR2,&CHAR3,&CHAR4                   06096000
         LCLC  &OPT4X                                              @I1A 06134100
.* ************ END VTL ADDITIONS ***************                       06172200
  LCLB  &CS1,&PASS1,&NERASE1,&EAU1,&ERASE1,&NOTIFY1                     06210300
  LCLB  &ANY1,&LBT1,&LBM1,&BLK1,&COND1,&UNCOND1                    @W1C 06248400
  LCLB  &LOCK1,&ACCEPT1,&ACQUIR1,&QUIESC1,&START1,&STOP1                06286500
  LCLB  &CONALL1,&CONANY1,&NQ1,&LGONMS1,&DEVCHR1,&TERMS1,&APSTAT1       06324600
  LCLB  &COUNTS1,&RNNAME1,&CIDXLT1,&TOPLGN1,&BSCID1,&DISPLY1            06362700
  LCLB  &NRELRQ1,&SKEY1                                        @XM30862 06388100
  LCLB  &UNCNDL1,&ACTIVE1,&PEND1                    (RETIRED BITS) @D1C 06413500
  LCLB  &BUFLST1,&CNTCHN1,&LMPEO1,&USERRH1                     @D5B4747 06438900
  LCLB  &BACKUP1,&USRVAR1,&FORCED1                             @R489320 06477000
  LCLB  &SONCD1,&NSONCD1,&UNBIND1,&SENSE1,&NSENSE1,&HOLD1      @R491100 06515100
  LCLB  &RSPQUE1,&NRSPQU1                                      @R491101 06553200
  LCLB  &MTS1                                                      @F1A 06591300
  LCLB  &TERMQ1                                                    @01A 06629400
  LCLB  &QSESS,&QALL,&QNOTE                                    @R504800 06667500
  LCLB  &QSESS1,&QNOTE1,&QALL1                                 @R504800 06705600
  LCLB  &PERSIQ,&PERST,&NPERST,&RESTOR,&PSTIME,&NQN           @B1A @KFC 06743700
  LCLB  &GNADD,&GNDEL,&GNSUB,&SESNM,&ENDAF                    @I1A @D1C 06781800
  LCLB  &KPSRB,&NKPSRB,&KPSRB1,&NKPSRB1                            @U4A 06819900
  LCLB  &CONDCS,&CONDCS1                                           @W1A 06858000
  LCLB  &CSSPEC,&CONDCSS                                           @W1A 06896100
  LCLB  &STATUS1                                                   @04A 06934200
  LCLB  &MXSES1                                                    @D1A 06953200
.* ********** DISPLACEMENT OF RPL FIELDS **********                     06972300
&PLARG   SETA  36    * THIS IS AN OS VTAM DISPLACEMENT *                07010400
&SCODE   SETA  31    * DISPLACEMENT INTO RPL TO SONCODE *               07048500
&PLAREA  SETA  32    * THIS IS AN OS VTAM DISPLACEMENT *                07086600
&PLRLEN  SETA  48    * THIS IS AN OS VTAM DISPLACEMENT *                07124700
&PLBUFL  SETA  52 * JAN 12, 73 CODE ADDED AS A RESULT OF PTM____ *      07162800
&PLACTIV SETA  69     * THIS IS AN OS VTAM DISPLACEMENT *               07200900
&PLEXTDS SETA  68     * THIS IS AN OS VTAM DISPLACEMENT *               07239000
&PLOPTC1 SETA  40     * THIS IS AN OS VTAM DISPLACEMENT *               07277100
&POPTCD2 SETA  56     * THIS IS AN OS VTAM DISPLACEMENT *               07315200
&POPTCD3 SETA  96     * THIS IS AN OS VTAM DISPLACEMENT *               07353300
&PLDACB  SETA  24     * THIS IS AN OS VTAM DISPLACEMENT *               07391400
&PLECB   SETA  08     * THIS IS AN OS VTAM DISPLACEMENT *               07429500
&PLAAREA SETA  76     * THIS IS AN OS VTAM DISPLACEMENT *               07467600
&PLAARLN SETA  80     * THIS IS AN OS VTAM DISPLACEMENT *               07505700
&PLARCLN SETA  84     * THIS IS AN OS VTAM DISPLACEMENT *               07543800
&PLUSFLD SETA  92     * THIS IS AN OS VTAM DISPLACEMENT *          @B1A 07581900
&PLOPT4  SETA  43     * THIS IS AN OS VTAM DISPLACEMENT *          @B1A 07620000
.* *************** VTL ADDITIONS ****************                       07658100
&PLRH3    SETA  16                       THIRD RH BYTE                  07696200
&PLSRTYP  SETA  17                       SEND OR RECEIVE TYPE FIELD     07734300
&PLVTFL2  SETA  20                       VTAM FLAGS FIELD               07772400
&PLCHN    SETA  18                       POSITION IN RU CHAIN FIELD     07810500
&PLCNTRL  SETA  21                       RU CONTROL CODE FIELD          07848600
&PLCNTDF  SETA  21                       DATA FLOW CONTROL CODES FIELD  07886700
&PLCNTDC  SETA  22                       DATA FLOW CONTROL CODES FIELD  07924800
&PLCNTSC  SETA  23                       SESSION CONTROL CODES FIELD    07962900
&PLOBSQV  SETA  60                       STSN OUTBOUND SEQ. NO. FIELD   08001000
&PLIBSQV  SETA  62                       STSN INBOUND SEQ. NO. FIELD    08039100
&PLOBSQ   SETA  64                       STSN OUTBOUND ACTION CODES     08077200
&PLIBSQ   SETA  65                       STSN INBOUND ACTION CODES      08115300
&PLSEQNO  SETA  66                       SEQUENCE NUMBER FIELD          08153400
&PLSSNSO  SETA  100                      SYSTEM SENSE OUTPUT FIELD      08191500
&PLSSEO   SETA  100                      SYSTEM SENSE ERROR CODES       08229600
&PLSSMO   SETA  101                      SYSTEM SENSE ERROR CODES       08267700
&PLUSNSO  SETA  102                      USER SENSE OUTPUT FIELD        08305800
&PLSIGDA  SETA  108                      SIGNAL DATA 4-BYTES  @VS45960  08343900
.* ************ END VTL ADDITIONS ***************                       08382000
&ASY     SETA  00                                                       08420100
&SYN     SETA  00                                                       08458200
&BIT0    SETB  0                                                        08496300
&CNTINQ  SETA  0                                                        08534400
&CNTSTL  SETA  0                                                   @B1A 08572500
&MSK1CTR SETA  0                                                        08610600
&MSK2CTR SETA  0                                                        08648700
&MSK3CTR SETA  0                                                        08686800
&MSK4CTR SETA  0                                                        08724900
&OPTERR  SETA  0                                                        08763000
&CA      SETB  0                                                        08801100
&CS      SETB  0                                                        08839200
&PASS    SETB  0                                                        08877300
&RELEASE SETB  0                                                        08915400
&NERASE  SETB  0                                                        08953500
&EAU     SETB  0                                                        08991600
&ERASE   SETB  0                                                        09029700
&SPEC    SETB  0                                                        09067800
&ANY     SETB  0                                                        09105900
&BLK     SETB  0                                                        09144000
&LBM     SETB  0                                                        09182100
&LBT     SETB  0                                                        09220200
&COND    SETB  0                                                        09258300
&UNCOND  SETB  0                                                        09296400
&LOCK    SETB  0                                                        09334500
&ACCEPT  SETB  0                                                        09372600
&ACQUIRE SETB  0                                                        09410700
&CONALL  SETB  0                                                        09448800
&CONANY  SETB  0                                                        09486900
&QUIESCE SETB  0                                                        09525000
&START   SETB  0                                                        09563100
&STOP    SETB  0                                                        09601200
&LGONMSG SETB  0                                                        09639300
&DEVCHAR SETB  0                                                        09677400
&TERMS   SETB  0                                                        09715500
&APPSTAT SETB  0                                                        09753600
&COUNTS  SETB  0                                                        09791700
&RNNAME  SETB  0                                                        09829800
&CIDXLAT SETB  0                                                        09867900
&TOPLGON SETB  0                                                        09906000
&BSCID   SETB  0                                                        09944100
&DISPLAY SETB  0                                                        09982200
&SPARM   SETB  0                                                        10020300
&SKEY    SETB  0                                                        10058400
&Q       SETB  0                                                        10096500
&NQ      SETB  0                                                        10134600
&RELRQ   SETB  0                                                        10172700
&NRELRQ  SETB  0                                                        10210800
&PEND    SETB  0                                                        10248900
&SESSION SETB  0                                                        10287000
&ACTIVE  SETB  0                                                        10325100
&UNCONDL SETB  0                                                        10363200
&NOTIFY  SETB  0                                                        10401300
&NBUFLST SETB  0                                               @D5B4747 10439400
&BUFFLST SETB  0                                               @D5B4747 10477500
&CONTCHN SETB  0                                               @D5B4747 10515600
&NCNTCHN SETB  0                                               @D5B4747 10553700
&NLMPEO  SETB  0                                               @D5B4747 10591800
&LMPEO   SETB  0                                               @D5B4747 10629900
&USERRH  SETB  0                                               @D5B4747 10668000
&NUSERRH SETB  0                                               @D5B4747 10706100
&NBACKUP SETB  0                                               @R489301 10744200
&BACKUP  SETB  0                                               @R489301 10782300
&USERVAR SETB  0                                               @R489301 10820400
&FORCED  SETB  0                                               @R489301 10858500
&SONCD   SETB  0                                               @R491100 10896600
&NSONCD  SETB  0                                               @R491100 10934700
&UNBIND  SETB  0                                               @R491100 10972800
&SENSE   SETB  0                                               @R491100 11010900
&NSENSE  SETB  0                                               @R491100 11049000
&HOLD    SETB  0                                               @R491100 11087100
&RSPQUE  SETB  0                                               @R491101 11125200
&NRSPQU  SETB  0                                               @R491101 11163300
&QSESS   SETB  0                                               @R504800 11201400
&QNOTE   SETB  0                                               @R504800 11239500
&QALL    SETB  0                                               @R504800 11277600
&MTS     SETB  0                                                   @F1A 11315700
&NMTS    SETB  0                                                   @F1A 11353800
&TERMQ   SETB  0                                                   @01A 11391900
&PERSIQ  SETB  0                                                   @B1A 11430000
&PERST   SETB  0                                                   @B1A 11468100
&NPERST  SETB  0                                                   @B1A 11506200
&RESTOR  SETB  0                                                   @B1A 11544300
&PSTIME  SETB  0                                                   @B1A 11582400
&CONDCS  SETB  0                                                   @W1A 11620500
&CSSPEC  SETB  0                                                   @W1A 11658600
&CONDCSS SETB  0                                                   @W1A 11696700
&NQN     SETB  0                                                   @KFA 11734800
&GNADD   SETB  0                                                   @I1A 11772900
&GNDEL   SETB  0                                                   @I1A 11811000
&GNSUB   SETB  0                                                   @D1A 11830000
&SESNM   SETB  0                                                   @I1A 11849100
&ENDAF   SETB  0                                                   @I1A 11887200
&KPSRB   SETB  0                                                   @U4A 11925300
&NKPSRB  SETB  0                                                   @U4A 11963400
&STATUS  SETB  0                                                   @04A 12001500
&MXSES   SETB  0                                                   @D1A 12020500
.* *************** VTL ADDITIONS ****************                       12039600
&KEEP    SETB  0                                                        12077700
&TRUNC   SETB  0                                                        12115800
&NIBTK   SETB  0                                                        12153900
&FMHDR   SETB  0                                                        12192000
&NFMHDR  SETB  0                                                        12230100
&KEEP1      SETB  1                                                     12268200
&TRUNC1     SETB  1                                                     12306300
&NIBTK1     SETB  1                                                     12344400
&FMHDR1     SETB  1                                                     12382500
.* ************ END VTL ADDITIONS ***************                       12420600
&BIT01      SETB  1                                                     12458700
&CS1        SETB  1                                                     12496800
&PASS1      SETB  1                                                     12534900
&NERASE1    SETB  1                                                     12573000
&EAU1       SETB  1                                                     12611100
&ERASE1     SETB  1                                                     12649200
&ANY1       SETB  1                                                     12687300
&LBT1       SETB  1                                                     12725400
&LBM1       SETB  1                                                     12763500
&BLK1       SETB  1                                                     12801600
&COND1      SETB  1                                                     12839700
&UNCOND1    SETB  1                                                     12877800
&LOCK1      SETB  1                                                     12915900
&ACCEPT1    SETB  1                                                     12954000
&ACQUIR1    SETB  1                                                     12992100
&CONALL1    SETB  1                                                     13030200
&CONANY1    SETB  1                                                     13068300
&QUIESC1    SETB  1                                                     13106400
&START1     SETB  1                                                     13144500
&STOP1      SETB  1                                                     13182600
&LGONMS1    SETB  1                                                     13220700
&DEVCHR1    SETB  1                                                     13258800
&TERMS1     SETB  1                                                     13296900
&APSTAT1    SETB  1                                                     13335000
&COUNTS1    SETB  1                                                     13373100
&RNNAME1    SETB  1                                                     13411200
&CIDXLT1    SETB  1                                                     13449300
&TOPLGN1    SETB  1                                                     13487400
&BSCID1     SETB  1                                                     13525500
&DISPLY1    SETB  1                                                     13563600
&SPARM1     SETB  1                                                     13601700
&SKEY1      SETB  1                                          @XM30862   13639800
&NQ1        SETB  1                                                     13677900
&NRELRQ1    SETB  1                                                     13716000
&PEND1      SETB  1                                                     13754100
&ACTIVE1    SETB  1                                                     13830300