         MACRO                                                          03000003
&NAME    II    &DL,&I                   INSERT IN WR FROM IMMED. DATA   06000003
         GBLC  &DEF3890(250)                                   @ZA00766 07000003
         GBLA  &VAL3890(250)                                   @ZA00766 08000003
         LCLC  &OP,&LABEL                                      @ZA00766 09000003
         LCLA  &DSL,&V,&RL,&M                                  @ZA00766 12000003
&V       SETA  &I                                                       12600003
&M       SETA  1                                               @ZA00766 12900003
         AIF   (&V LE 65535).II0                                        13200003
         MNOTE 8,'***  IHB421 IMMEDIATE VALUE EXCEEDS ALLOWED MAXIMUM'  13800003
.II0     ANOP                                                           14400003
&OP      SETC  '47'                                                     15000003
         AIF   (N'&DL EQ 1).LI3         DL WAS EQUID                    18000003
         AIF   ('&DL(1)' LT '16').LI1                                   21000003
         MNOTE 12,'***  IHB349  DISPLACEMENT NOT 0-15 DIGITS'           24000003
.LI1     AIF   ('&DL(2)' NE '0' AND '&DL(2)' LT '5').LI2                27000003
         MNOTE 12,'***  IHB351  LENGTH NOT 1-4 DIGITS'                  30000003
.LI2     ANOP                                                           33000003
&DSL     SETA  16*&DL(1)+&DL(2)-1                                       36000003
&NAME    DC    0H'0',X'&OP',AL1(&DSL),AL2(&I)                           39000003
         AGO   .END                                                     42000003
.LI3     ANOP                                                           45000003
.LI7     AIF   (&M GT 250).LI8                                 @ZA00766 45100003
&LABEL   SETC  '&DEF3890(&M)'                                  @ZA00766 45200003
.LI5     AIF   ('&DL'   EQ '&LABEL').LI6                       @ZA00766 45300003
&M       SETA  &M+1                                            @ZA00766 45400003
         AGO   .LI7                                            @ZA00766 45500003
.LI8     ANOP                                                  @ZA00766 45600003
         MNOTE 12,'***   IHB425 &DL NOT EQUATED IN DWF MACRO'  @ZA00766 45700003
.LI6     ANOP                                                  @ZA00766 45800003
&RL      SETA  &VAL3890(&M)                                    @ZA00766 45900003
         AIF   ( &RL  LE  03  OR  &RL  GE  16  AND  &RL  LE  19  OR  &RX46000003
               L  GE  32  AND  &RL  LE  35  OR  &RL  GE  48  AND  &RL  X46200003
               LE  51  OR  &RL  GE  64  AND  &RL  LE  67 ).LI4 @ZA00766 46400003
         AIF   ( &RL  GE  80  AND  &RL  LE  83  OR  &RL  GE  96  AND  &X46500003
               RL  LE  99  OR  &RL  GE  112 AND  &RL  LE 115 OR  &RL   X46700003
               GE 128  AND  &RL  LE 131 ).LI4                  @ZA00766 46900003
         AIF   ( &RL  GE 144  AND  &RL  LE  147 OR  &RL  GE  160 AND  &X47000003
               RL  LE  163 OR  &RL  GE  176 AND  &RL  LE  179 OR  &RL  X47200003
               GE  192 AND  &RL  LE  195).LI4                  @ZA00766 47400003
         AIF   ( &RL  GE  208 AND  &RL  LE  211 OR  &RL  GE  224 AND  &X47500003
               RL  LE  227 OR  &RL  GE  240 AND  &RL  LE  243).LI4      47700003
.*                                                             @ZA00766 47750003
         MNOTE 12,'***  IHB351  LENGTH NOT 1-4 DIGITS'                  47800003
.LI4     ANOP                                                           81000003
&NAME    DC    0H'0',X'&OP',AL1(&RL),AL2(&I)                   @ZA00766 84000003
.END     MEND                                                           87000003
