*/*                                                                             
         MACRO                                                                  
&NAME    IKJEBEMG  &PTR,&INS,&TEXT                                              
         LCLC  &GNAME                                                           
&GNAME   SETC  '&SYSNDX'                                                        
         AIF   (N'&PTR NE 0).TAG1                                               
&NAME    DC    A(0) POINTER TO SECOND INSERTION RECORD                          
         AGO   .TAG2                                                            
.TAG1    ANOP                                                                   
&NAME    DC    A(&PTR) POINTER TO SECOND INSERTION RECORD                       
.TAG2    ANOP                                                                   
         AIF (N'&INS NE 0).TAG4                                                 
         MNOTE 4,'INSERTION POINT NOT SPECIFIED'                                
         AGO   .EXIT                                                            
.TAG4    ANOP                                                                   
         DC    AL2(MXX&GNAME-*) LENGTH OF MESSAGE                               
         DC    AL2(&INS) POINTER TO INSERTION POINT                             
         AIF (N'&TEXT NE 0).TAG6                                                
         MNOTE 4,'MESSAGE TEXT NOT PROVIDED'                                    
         AGO   .EXIT                                                            
.TAG6    ANOP                                                                   
         DC    C&TEXT                                                           
MXX&GNAME  EQU   *                                                              
.EXIT    ANOP                                                                   
         MEND                                                                   
**/                                                                             
*% IKJEBEMG: MACRO;                                                             
*     /* THE FOLLOWING ARE POSITIONAL PARAMETERS FOR THE MACLIST                
*                                                                               
*        (ANAME,                          ALABEL ON ANOTHER                     
*                                         ? IKJEBEMG INVOCATION                 
*                                                                               
*        OFFSET,                          OFFSET INTO MSG FOR TEXT              
*                                                                               
*        'TEXT')                          TEXT TO BE INSERTED        */         
*  DECLARE                                                                      
*    ERRMSG CHAR,                      /* ERROR MESSAGE TEXT         */         
*    RETCODE FIXED,                    /* RETURN CODE                */         
*    GNAME CHAR EXT;                                                            
*                                                                               
*        RETCODE = 0;                                                           
*                                                                               
*        ANS ('DECLARE') COL(MACCOL) SKIP(2);                                   
*        ANS('1 ' || MACLABEL(1:INDEX(MACLABEL,':')-1) || ' STATIC,')           
*          COL(MACCOL+2);                                                       
*                                                                               
*        IF MACLIST(1) = ''            /* FIRST OPERAND MISSING      */         
*          THEN                        /*   YES                      */         
*            ANS('2 * PTR(31) INIT(0),') COL(MACCOL+4);                         
*          ELSE                        /*   NO, WE HAVE IT           */         
*            ANS('2 * PTR(31) INIT(ADDR(' ||                                    
*                MACLIST(1) || ')),') COL(MACCOL+4);                            
*                                                                               
*        IF MACLIST(2) = ''            /* SECOND OPERAND MISSING     */         
*          THEN                        /*   YES                      */         
*            DO;                                                                
*              ERRMSG = 'INSERTION POINT NOT SPECIFIED';                        
*              ANS(COMMENT(ERRMSG)) COL(2) SKIP(1);                             
*              RETCODE = 4;                                                     
*            END;                                                               
*                                                                               
*        ANS ('2 * PTR(15) INIT(' ||                                            
*             CHAR( LENGTH(MACLIST(3))+2 ) || '),') COL(MACCOL+4);              
*        ANS ('2 * PTR(15) INIT(' ||                                            
*             MACLIST(2) || '),') COL(MACCOL+4);                                
*                                                                               
*        IF MACLIST(3) = ''            /* THIRD OPERAND MISSING      */         
*          THEN                        /*   YES                      */         
*            DO;                                                                
*              ERRMSG = 'MESSAGE TEXT NOT PROVIDED';                            
*              ANS(COMMENT(ERRMSG)) COL(2) SKIP(1);                             
*              RETCODE = 4;                                                     
*            END;                                                               
*                                                                               
*        ANS('2 * CHAR(' || CHAR(LENGTH(MACLIST(3)) - 2) ||                     
*            ') INIT(' || MACLIST(3) || ');') COL(MACCOL+4);                    
*                                                                               
*        RETURN CODE(RETCODE);                                                  
*% END IKJEBEMG;                                                                
