**********************************************************************  00001800
*  COPYRIGHT:                                                        *  00003600
*PROPRIETARY V3 STATEMENT                                            *  00005400
*LICENSED MATERIALS - PROPERTY OF IBM                                *  00007200
*"RESTRICTED MATERIALS OF IBM"                                       *  00009000
*5695-DF1                                                            *  00010800
*(C) COPYRIGHT 1992  IBM CORP.                                       *  00012600
*END PROPRIETARY V3 STATEMENT                                        *  00015300
**********************************************************************  00018000
         MACRO                                                          00020000
&NAME    INDEX &LIST,&DUMMY=                                            00040000
&NAME    LOCATE &LIST                   EXPAND USING LOCATE             00060000
         MEND                                                           00080000
