         MACRO                                                          00050000
&NAME    ISTRPL1 &ACBDATA=,&AREA=0,&ARG=0,&NXTRPL=0,&KEYLEN=0,         *00100000
               &ECB=,&BUFL=,&LEN=,&MSGLEN=0,&ERRMSG=,                  *00150000
               &CCHAR=0,&OPTCD=,&NIB=,&BRANCH=,                        *00200000
               &ACB=,&AREALEN=,&MSGAREA=,&RECLEN=,                     *00250000
               &AM=,&AAREA=0,&AAREALN=0,&EXIT=,&ARECLEN=0,             *00300000
               &SEQNO=0,&USENSEO=0,&IBSQVAL=0,&OBSQVAL=0,              *00350000
               &POST=,&RESPOND=,&CHAIN=,&CONTROL=,&CHNGDIR=,           *00400000
               &BRACKET=,&SSENSMO=0,&TRANSID=0,                        *00450000
               &SSENSEO=,&RTYPE=,&STYPE=,&IBSQAC=,&OBSQAC=,            *00500000
               &SIGDATA=0,&CODESEL=,                                   *00550000
               &CRYPT=,                                                *00600000
               &PARMS=,&PARM2=,&PARM3=                                  00650000
.**** START OF SPECIFICATIONS ***************************************** 00700000
.*                                                                      00750000
.* COPYRIGHT:  NONE                                                     00800000
.*                                                                      00850000
.* FUNCTION-   THE FUNCTION OF THIS MACRO IS TO BUILD,         @ZA34940 00900000
.*             AT ASSEMBLY TIME, A REQUEST PARAMETER LIST FOR           00950000
.*             A VTAM USER.                                    @ZA34940 01000000
.*             ISTRPL1 IS INVOKED BY THE MACRO RPL WHEN A      @ZA34940 01050000
.*             USER ISSUES AN RPL MACRO WITH 'AM=VTAM'                  01100000
.*             SPECIFIED.                                      @ZA34940 01150000
.*                                                             @ZA34940 01200000
.* CHANGE ACTIVITY                                             @ZA34940 01250000
.*      CBMM SPLIT SUPPORT                                     @ZA34940 01300000
.*     10/12/78  SNA4 SUPPORT                                  @G69AKJP 01350000
.*     11/16/83  DCR 4911.00                                   @R491100 01400000
.*                                                             @ZA34940 01450000
.* $MAC(ISTRPL1),COMP(API),PROD(VTAM): REQUEST PARAMETER LIST BUILDER   01500000
.*                                                                      01550000
.* FLAG REASON   RELEASE DATE   ORIGIN  FLAG DESCRIPTORS                01600000
.* ---- -------- ------- ------ ------  ---------------------------     01650000
.* $T1= P100451  HATAPPN 920728 998680: PSTIMER VALUE SET               01700000
.* $T2= P104866  HATAPPN 921002 879315: RPL cannot set OPT4 fields      01750000
.* $21= OW18277  INDY    960228 879315: ECB=INTERNAL generates          01766600
.*                                      incorrect RPLECBIN              01783200
.*                                                                      01800000
.**** END OF SPECIFICATIONS ******************************************* 01850000
.*                                                                      01900000
.*             THE FOLLOWING GLOBALS ARE SET IN ISTCBOPT WITH  @ZA34940 01950000
.*             THE VALUES OF THE VARIOUS OPTCD BYTES           @ZA34940 02000000
         GBLC  &IDAOP1,&IDAOP2,&IDAOP5,&IDAOP6,&IDAOP7,&IDAOP8  X04SVHS 02050000
         GBLC  &IDAOP9,&IDAOPA,&IDAOPB,&IDAOPC  OPTCD CODES     X04SVHS 02100000
         GBLC  &IDABRCH                 BRANCH CODE             X04SVHS 02150000
         GBLC  &IDASNSO                 SSENSEO CODES           X04SVHS 02200000
         GBLC  &IDACRYP                 ENCRIPTION CODE        @G40AKCM 02250000
         GBLC  &IDARH3                 CHNGDIR/BRACKET/CODESEL @Z40BHUC 02300000
         GBLC  &IDASRTY                 STYPE, RTYPE CODES      X04SVHS 02350000
         GBLC  &IDACHN                  CHAIN CODES             X04SVHS 02400000
         GBLC  &IDAPORE                 POST RESPOND CODES      X04SVHS 02450000
         GBLC  &IDACON1,&IDACON2,&IDACON3 CONTROL CODES         X04SVHS 02500000
         GBLC  &IDAOBQC                 OBSQAC CODES            X04SVHS 02550000
         GBLC  &IDAIBQC                 IBSQAC CODES            X04SVHS 02600000
         GBLA  &IDAENO                  NUMBER OF ELEMENTS     @ZA06420 02650000
.* LOCALS                                                               02700000
         LCLA  &LENG                    SUBPARAMETER RPL LENGTH  X03004 02750000
         LCLA  &SUBTYPE                 SUBTYPE CODE            X04SVHS 02800000
         LCLB  &ECBX                                            X04SVHS 02850000
         LCLB  &EXITB,&NOEXIT,&NIBD                             X04SVHS 02900000
         LCLA  &I                       COUNTER                @G69AKJP 02950000
         LCLA  &L                       LEN. OF KEYWORD VALUE  @G69AKJP 03000000
         LCLC  &K1                      KEYWORD VALUE          @G69AKJP 03050000
         LCLC  &NOTIFY                  SET NOTIFY/NONOTIFY    @G69AKJP 03100000
         LCLC  &SONCD                   SET SON CODE           @R491100 03150000
.*             INITIALIZE GLOBAL VARIABLES                              03200000
&IDAOP1  SETC  '0000000'                                        X04SVHS 03250000
&IDAOP2  SETC  '00000000'                                       X04SVHS 03300000
&IDAOP5  SETC  '00000000'                                       X04SVHS 03350000
&IDAOP6  SETC  '00000000'                                       X04SVHS 03400000
&IDAOP7  SETC  '00000000'                                       X04SVHS 03450000
&IDAOP8  SETC  '00000000'                                       X04SVHS 03500000
&IDAOP9  SETC  '00000000'                                       X04SVHS 03550000
&IDAOPA  SETC  '00000000'                                       X04SVHS 03600000
&IDAOPB  SETC  '00000000'                                       X04SVHS 03650000
&IDAOPC  SETC  '00000000'                                       X04SVHS 03700000
&IDABRCH SETC  '0'                                              X04SVHS 03750000
&IDASNSO SETC  '00000000'                                       X04SVHS 03800000
&IDARH3  SETC  '00000000'                                       X04SVHS 03850000
&IDASRTY SETC  '00000000'                                       X04SVHS 03900000
&IDACRYP SETC  '0'                                             @G40AKCM 03950000
&IDACHN  SETC  '00000000'                                       X04SVHS 04000000
&IDAPORE SETC  '00000000'                                       X04SVHS 04050000
&IDACON1 SETC  '00000000'                                       X04SVHS 04100000
&IDACON2 SETC  '00000000'                                       X04SVHS 04150000
&IDACON3 SETC  '00000000'                                       X04SVHS 04200000
&IDAOBQC SETC  '00000000'                                       X04SVHS 04250000
&IDAIBQC SETC  '00000000'                                       X04SVHS 04300000
&IDAENO  SETA  0                                               @ZA06420 04350000
.*                                                                      04400000
&LENG    SETA  76                       SET NON VTAM LENGTH      X03004 04450000
         AIF   ('&AM' NE 'VTAM').SETLEN  WAS VTAM SPECIFIED      X03004 04500000
&LENG    SETA  112                      YES; SET VTAM LENGTH   @Z40BHUC 04550000
.SETLEN  ANOP                           NO; USE NON VTAM LENGTH  X03004 04600000
&NAME    DS    0F                                                       04650000
         DC    AL1(0)                   RPL IDENTIFICATION              04700000
&SUBTYPE SETA  X'10'                    SET VSAM SUBTYPE        X04SVHS 04750000
         AIF   ('&AM' EQ 'VSAM').SSTYPE CHK FOR AM = VSAM               04800000
         AIF   ('&AM' EQ '').SSTYPE     DEFAULT AM = VSAM               04850000
&SUBTYPE SETA  X'20'                    SET VTAM SUBTYPE        X04SVHS 04900000
         AIF   ('&AM' EQ 'VTAM').SSTYPE CHK FOR AM = VTAM       X04SVHS 04950000
.*                                      IF NOT ERROR            X04SVHS 05000000
&SUBTYPE SETA  0                        SET SUBTYPE TO ZERO     X04SVHS 05050000
         ISTERMAC 3,AM,&AM              ISSUE ERROR MSG        @ZA34940 05100000
.SSTYPE  ANOP                                                   X04SVHS 05150000
         DC    AL1(&SUBTYPE)            RPL SUBTYPE             X04SVHS 05200000
         DC    AL1(0)                   RPL REQUEST TYPE                05250000
         DC    AL1(&LENG)               RPL LENGTH               X03004 05300000
.*                                                             @G69AKJP 05350000
.*       DIAGNOSE ALL KEYWORDS IN PARMS SUBLIST                @G69AKJP 05400000
.*       FOR VTAM VALIDITY                                     @G69AKJP 05450000
.*                                                             @G69AKJP 05500000
.DOPARMS ANOP                                                  @G69AKJP 05550000
         AIF   ('&PARMS' EQ '').PODONE  NO PARMS               @G69AKJP 05600000
&I       SETA  0                        INITIALIZE COUNTER     @G69AKJP 05650000
.PARMS   ANOP                                                  @G69AKJP 05700000
&I       SETA  &I+1                                            @G69AKJP 05750000
         AIF   (&I GT N'&PARMS).PODONE  NO MORE PARMS          @G69AKJP 05800000
         AIF   ('&PARMS(&I)'(1,8) EQ 'THRDPTY=').TNTFY         @G69AKJP 05850000
         AIF   ('&PARMS(&I)'(1,8) EQ 'SONCODE=').SCODE         @R491100 05900000
         ISTERMAC 11,&PARMS(&I),PARMS   ISSUE ERROR MSG        @G69AKJP 05950000
         AGO   .PARMS                   CHECK NEXT KEYWORD     @G69AKJP 06000000
.SCODE   ANOP                                                  @R491100 06050000
&L       SETA  K'&PARMS(&I)-8           LENGTH OF OPERAND      @R491100 06100000
&SONCD   SETC  '&PARMS(&I)'(9,&L)       EXTRACT OPERAND        @R491100 06150000
         AGO   .PARMS                   TEST FOR MORE PARMS    @R491100 06200000
.TNTFY   ANOP                                                  @G69AKJP 06250000
&NOTIFY  SETC  'NO'                     INIT TO NONOTIFY       @G69AKJP 06300000
&L       SETA  K'&PARMS(&I)-8           LENGTH OF OPERAND      @G69AKJP 06350000
&K1      SETC  '&PARMS(&I)'(9,&L)       EXTRACT OPERAND        @G69AKJP 06400000
         AIF   ('&K1' EQ '').PARMS      VALUE NOT SPECIFIED    @G69AKJP 06450000
         AIF   ('&K1' EQ 'NONOTIFY').PARMS      NONOTIFY       @G69AKJP 06500000
         AIF   ('&K1' EQ 'NOTIFY').NTFY         NOTIFY         @G69AKJP 06550000
         ISTERMAC 3,THRDPTY,&K1         ISSUE ERROR MSG        @G69AKJP 06600000
         AGO   .PARMS                   TEST FOR MORE PARMS    @G69AKJP 06650000
.NTFY    ANOP                                                  @G69AKJP 06700000
&NOTIFY  SETC  'YES'                    SET FOR NOTIFY         @G69AKJP 06750000
         AGO   .PARMS                   TEST FOR MORE PARMS    @R491100 06800000
.PODONE  ANOP                                                           06850000
.*                                                                      06900000
.*             ISTCBRPL IS CALLED TO PROCESS BIT KEYWORDS      @ZA34940 06950000
.*             THRDPTY,OPTCD                                            07000000
.*             BRANCH, POST, RESPOND, CHAIN, CONTROL, CHNGDIR, BRACKET, 07050000
.*             CODESEL, SSENSEO, RTYPE, STYPE, IBSQAC, AND OBSQAC.      07100000
.*             IT WILL VALIDITY CHECK THE OPTIONS SPECIFIED, MUTUALLY   07150000
.*             EXCLUSIVE CHECK WHERE APPLICABLE, AND SET GLOBALS        07200000
.*             WITH THE VALUES OF THE KEYWORDS.                         07250000
.*                                                                      07300000
         ISTCBRPL OPTCD=&OPTCD,BRANCH=&BRANCH,POST=&POST,              *07350000
               RESPOND=&RESPOND,CHAIN=&CHAIN,CONTROL=&CONTROL,         *07400000
               CHNGDIR=&CHNGDIR,BRACKET=&BRACKET,SSENSEO=&SSENSEO,     *07450000
               CODESEL=&CODESEL,                                       *07500000
               RTYPE=&RTYPE,STYPE=&STYPE,IBSQAC=&IBSQAC,               *07550000
               OBSQAC=&OBSQAC,CALLER=RPL,AM=&AM,                       *07600000
               CRYPT=&CRYPT,THRDPTY=&NOTIFY                             07650000
.*                                                                      07700000
         DC    A(0) .                   POINTER TO PLACEHOLDER          07750000
         AIF   ('&ECB' EQ '' AND '&EXIT' EQ '').DEFAULT         X04SVHS 07800000
         AIF   ('&ECB' EQ 'INTERNAL').DEFAULT                  @ZA53672 07850000
         AIF   ('&ECB' EQ '').EXIT      TRY EXIT IF NOT ECB      X03004 07900000
         DC    A(&ECB) .                POINTER TO ECB                  07950000
         AIF   ('&EXIT' EQ '').NOEXTSP                          X04SVHS 08000000
         ISTERMAC 19,ECB,EXIT           ISSUE ERROR MSG        @ZA34940 08050000
         AGO   .NOEXTSP                                          X03004 08100000
.EXIT    AIF   ('&EXIT' EQ '').DEFAULT  DEFAULT IF NOT EXIT     X04SVHS 08150000
         AIF   ('&AM' EQ 'VTAM').SETEXIT  WAS VTAM SPECIFIED     X03004 08200000
         ISTERMAC 18,EXIT               ISSUE ERROR MSG        @ZA34940 08250000
         AGO   .DEFAULT                 DO NOT SET ASYNCH EXIT   X03004 08300000
.SETEXIT ANOP                           SET ASYNCH EXIT          X03004 08350000
         DC    A(&EXIT) .               POINTER TO ASYNCH EXIT   X03004 08400000
&EXITB   SETB  1                                                 X03004 08450000
         AGO   .ENDEXIT                                          X03004 08500000
.DEFAULT ANOP                                                    X03004 08550000
         DC    A(0) .                   ECB                             08600000
.NOEXTSP ANOP                                                    X03004 08650000
&NOEXIT  SETB  1                                                 X03004 08700000
.ENDEXIT ANOP                                                    X03004 08750000
         DC    BL1'0' .                 STATUS BYTE                     08800000
         DC    XL3'0'                   FEEDBACK CODES                  08850000
.*                                                              X3004BH 08900000
.* IF AM=VTAM, A VTAM SECTION OVERLAYS THE TWO WORDS CONTAINING X3004BH 08950000
.* KEYLEN,STRING ID AND CONTROL CHARACTER POINTER.  IF NOT      X3004BH 09000000
.* VTAM, ALL VTAM KEYWORDS FOR THIS AREA ARE INVALID.           X3004BH 09050000
.*                                                              X3004BH 09100000
         AIF   ('&AM' EQ 'VTAM').OVLY16 IF VTAM GO TO OVERLAY   X3004BH 09150000
         DC    AL2(&KEYLEN) .           KEY LENGTH                      09200000
         DC    AL2(&TRANSID) .          TRANSID                 X04SVHS 09250000
         DC    A(&CCHAR)                POINTER TO CONTROL CHARACTER    09300000
.*                                                                      09350000
.*             THE ACB ADDRESS CAN BE SPECIFIED BY ACB= OR ACBDATA=     09400000
.ACB     ANOP                                                   X3004BH 09450000
         AIF   ('&ACBDATA' EQ '').TRYACB CHECK FOR ACB= IF NOT ACBDATA  09500000
         DC    A(&ACBDATA) .            POINTER TO DATA ACB             09550000
         AGO   .ACBEND                                                  09600000
.TRYACB  ANOP                                                           09650000
         AIF   ('&ACB' EQ '').NOACB      WAS ACB= SPECIFIED             09700000
         DC    A(&ACB) .                POINTER TO ACB                  09750000
         AGO   .ACBEND                                                  09800000
.NOACB   ANOP                                                           09850000
         DC    A(0) .                   RESERVED FOR ACB POINTER        09900000
.ACBEND  ANOP                                                           09950000
         DC    AL3(0) .                 USER RH                @R491100 10000000
         AIF   ('&SONCD' EQ '').NOCD    SONCODE NOT SPECIFIED  @R491100 10050000
         DC    AL1(&SONCD)              SONCODE CODE           @R491100 10100000
         AGO   .AREAA                                                   10150000
.NOCD    ANOP                                                           10200000
         DC    AL1(0)                   SONCODE NOT SPECIFIED  @R491100 10250000
.AREAA   ANOP                                                           10300000
         DC    A(&AREA) .               POINTER TO RECORD AREA          10350000
.NIBARG  AIF   ('&NIB' EQ '').NONIB     BR IF NIB NOT SPECIFIED  X03004 10400000
         AIF   ('&ARG' EQ '0').NIB      BR IF ARG NOT SPECIFIED  X03004 10450000
         ISTERMAC 19,NIB,ARG            ISSUE ERROR MSG        @ZA34940 10500000
         DC    A(0)                     POINTER TO ARGUMENT      X03004 10550000
         AGO   .OPTCD                                           X3004BH 10600000
.NIB     ANOP                           NIB CHECK                X03004 10650000
         AIF   ('&AM' EQ 'VTAM').SETNIB WAS VTAM SPECIFIED       X03004 10700000
         ISTERMAC 18,NIB                ISSUE ERROR MSG        @ZA34940 10750000
         AGO   .NONIB                   SKIP NIB SETUP           X03004 10800000
.SETNIB  ANOP                           SET NIB                  X03004 10850000
         DC    A(&NIB)                  POINTER TO NIB           X03004 10900000
&NIBD    SETB  1                        INDICATE NIB SPECIFIED   X03004 10950000
         AGO   .OPTCD                                           X3004BH 11000000
.NONIB   ANOP                                                    X03004 11050000
         DC    A(&ARG) .                POINTER TO ARGUMENT             11100000
.OPTCD   ANOP                                                   X3004BH 11150000
&ECBX    SETB  ('&ECB' NE '' AND '&ECB' NE '0' AND '&ECB' NE 'INTERNAL'X11183300
               )                                                   @21C 11216600
         DC    B'&IDAOP1&ECBX' .        OPTCD BYTE 1                    11250000
         DC    B'&IDAOP2' .            OPTCD BYTE 2                     11300000
         DC    AL1(0) .                 OPTCD BYTE 3            X04SVHS 11350000
         DC    AL1(0) .                 OPTCD BYTE 4            X04SVHS 11400000
         DC    A(&NXTRPL) .             POINTER TO NEXT RPL             11450000
.*             THE LRECL SIZE CAN BE SPECIFIED BY LEN= OR RECLEN=       11500000
         AIF   ('&LEN' EQ '').TRYLREC CHECK FOR RECLEN= IF NOT LEN      11550000
         DC    A(&LEN) .                LOGICAL RECORD LENGTH           11600000
         AGO   .LENEND                                                  11650000
.TRYLREC ANOP                                                           11700000
         AIF   ('&RECLEN' EQ '').NOLEN  WAS RECLEN= SPECIFIED           11750000
         DC    A(&RECLEN) .             LOGICAL RECORD LENGTH           11800000
         AGO   .LENEND                                                  11850000
.NOLEN   ANOP                                                           11900000
         DC    A(0) .                   RESERVED FOR LOGICAL REC LEN    11950000
.LENEND  ANOP                                                           12000000
.*             THE BUFFER SIZE CAN BE SPECIFIED BY BUFL= OR AREALEN=    12050000
         AIF   ('&BUFL' EQ '').TRYALEN CHECK FOR AREALEN= IF NOT BUFL   12100000
         DC    A(&BUFL) .               BUFFER LENGTH                   12150000
         AGO   .ALENEND                                                 12200000
.TRYALEN ANOP                                                           12250000
         AIF   ('&AREALEN' EQ '').NOALEN  WAS AREALEN= SPECIFIED        12300000
         DC    A(&AREALEN) .            BUFFER LENGTH                   12350000
         AGO   .ALENEND                                                 12400000
.NOALEN  ANOP                                                           12450000
         DC    A(0) .                   RESERVED FOR BUFFER LENGTH      12500000
.ALENEND ANOP                                                           12550000
*                                       OPTCD BYTES 5-8          X03004 12600000
         DC    B'&IDAOP5' .            BYTE 5                  X04SVHS  12650000
         DC    B'&IDAOP6' .            BYTE 6                  X04SVHS  12700000
         DC    B'&IDAOP7' .            BYTE 7                  X04SVHS  12750000
         DC    B'&IDAOP8' .            BYTE 8                  X04SVHS  12800000
.*                                                              X3004BH 12850000
.* IF AM=VTAM, A VTAM SECTION OVERLAYS THE TWO RBA WORDS.  IF   X3004BH 12900000
.* NOT VTAM, ALL VTAM KEYWORDS FOR THIS AREA ARE INVALID.       X3004BH 12950000
.*                                                              X3004BH 13000000
         AIF   ('&AM' EQ 'VTAM').OVLY60 IF VTAM GO TO OVERLAY   X3004BH 13050000
         AIF   ('&OBSQVAL' EQ '0').TSTIVL BRANCH IF NOT OBSQVAL X3004BH 13100000
         ISTERMAC 18,OBSQVAL            ISSUE ERROR MSG        @ZA34940 13150000
.TSTIVL  AIF   ('&IBSQVAL' EQ '0').TSTSEQ  BRANCH IF NOT IBSQVALX3004BH 13200000
         ISTERMAC 18,IBSQVAL            ISSUE ERROR MSG        @ZA34940 13250000
.TSTSEQ  AIF   ('&SEQNO' EQ '0').DEF60    BRANCH IF NOT SEQNO   X3004BH 13300000
         ISTERMAC 18,SEQNO              ISSUE ERROR MS         @ZA34940 13350000
.DEF60   ANOP                                                   X3004BH 13400000
         DC    XL8'0' .                 RBA                             13450000
.TSTBRCH ANOP                                                   X3004BH 13500000
         DC    B'0&NOEXIT&EXITB.0&IDACRYP&NIBD&IDABRCH.0'      @G40AKSL 13550000
         DC    AL1(0)                   ACTIVE INDICATOR                13600000
         DC    AL2(&MSGLEN) .           MAXIMUM ERROR MSG LENGTH        13650000
.*             THE MSGAREA CAN BE SPECIFIED BY ERRMSG OR MSGAREA        13700000
         AIF   ('&ERRMSG' EQ '').TRYMA CHECK FOR MSGAREA= IF NOT ERRMSG 13750000
         DC    A(&ERRMSG) .             POINTER TO ERROR MSG AREA       13800000
         AGO   .MAEND                                                   13850000
.TRYMA   ANOP                                                           13900000
         AIF   ('&MSGAREA' EQ '').NOMA  WAS MSGAREA= SPECIFIED          13950000
         DC    A(&MSGAREA) .            POINTER TO MESSAGE AREA         14000000
         AGO   .MAEND                                                   14050000
.NOMA    ANOP                                                           14100000
         DC    A(0) .                   RESERVED FOR MESSAGE AREA PTR   14150000
.MAEND   ANOP                                                    X03004 14200000
         AIF   ('&AM' EQ 'VTAM').VTAMEXT  WAS VTAM SPECIFIED     X03004 14250000
         AIF   ('&AAREA' EQ '0').NOAAREA  WAS AAREA SPECIFIED    X03004 14300000
         ISTERMAC 18,AAREA              ISSUE ERROR MSG        @ZA34940 14350000
.NOAAREA ANOP                           CHECK FOR AAREALN        X03004 14400000
         AIF   ('&AAREALN' EQ '0').NOARELN  AAREALN SPECIFIED    X03004 14450000
         ISTERMAC 18,AAREALN            ISSUE ERROR MSG        @ZA34940 14500000
.NOARELN ANOP                           CHECK FOR ARECLEN        X03004 14550000
         AIF   ('&ARECLEN' EQ '0').NOARCLN WAS ARECLEN SPECIFIED X03004 14600000
         ISTERMAC 18,ARECLEN            ISSUE ERROR MSG        @ZA34940 14650000
.NOARCLN ANOP                           CHECK FOR USENSEO       X3004BH 14700000
         AIF   ('&USENSEO' EQ '0').NOUSNSO WAS USENSEO SPECIFIEDX3004BH 14750000
         ISTERMAC 18,USENSEO            ISSUE ERROR MSG        @ZA34940 14800000
.NOUSNSO ANOP                                                   X3004BH 14850000
         AIF   ('&SSENSMO' EQ '0').NOSSNMO WAS SSENSMO SPEC    X03004JS 14900000
         ISTERMAC 18,SSENSMO            ISSUE ERROR MSG        @ZA34940 14950000
.NOSSNMO ANOP                           CHECK FOR SIGDATA      @Z40BHUC 15000000
         AIF   ('&SIGDATA' EQ '0').NOSIGDA WAS SIGDATA SPEC    @Z40BHUC 15050000
         ISTERMAC 18,SIGDATA            ISSUE ERROR MSG        @ZA34940 15100000
.NOSIGDA ANOP                           END OF CHECK           @Z40BHUC 15150000
         MEXIT                          NOT VTAM - END MACRO    X3004BH 15200000
.VTAMEXT ANOP                           SET VTAM PARAMETERS      X03004 15250000
         DC    A(&AAREA) .              ADDITIONAL DATA AREA PTR X03004 15300000
         DC    A(&AAREALN) .            ADDITIONAL AREA LENGTH   X03004 15350000
         DC    A(&ARECLEN) .            ADDITIONAL RECORD LENGTH X03004 15400000
         DC    XL4'0'                   FEEDBACK AREA            X03004 15450000
         DC    XL4'0'                   USER FIELD               X03004 15500000
         DC    B'&IDAOP9' .            OPTCD BYTE 9            X04SVHS  15550000
         DC    B'&IDAOPA' .            OPTCD BYTE 10           X04SVHS  15600000
         DC    B'&IDAOPB' .            OPTCD BYTE 11           X04SVHS  15650000
         DC    B'&IDAOPC' .            OPTCD BYTE 12           X04SVHS  15700000
         DC    B'&IDASNSO'              SYSTEM SENSE OUTPUT     X04SVHS 15750000
*                                       DATA                   X03004JS 15800000
         DC    AL1(&SSENSMO)            SYSTEM SENSE MODIFIER           15850000
*                                       OUTPUT                 X03004JS 15900000
         DC    AL2(&USENSEO)            USER SENSE OUTPUT       X3004BH 15950000
         DC    A(0)                     SAVE AREA OF FAST PATH @Z40BHUC 16000000
         DC    A(&SIGDATA)              SIGNAL DATA FIELD      @Z40BHUC 16050000
*                                                                       16100000
         MEXIT                          END OF VTAM EXTENSION   X3004BH 16150000
.*                                                              X3004BH 16200000
.* PROCESSING FOR VTAM FIELDS WHICH START AT OFFSET 16          X3004BH 16250000
.*                                                              X3004BH 16300000
.OVLY16  ANOP                                                   X3004BH 16350000
         DC    B'&IDARH3'               THIRD REQUEST HEADER            16400000
*                                                BYTE           X04SVHS 16450000
.*                                                              X3004BH 16500000
.* STYPE/RTYPE                                                  X3004BH 16550000
         DC    B'&IDASRTY'              SEND/RECEIVE TYPE       X04SVHS 16600000
         DC    B'&IDACHN'               REQUEST UNIT CHAIN POSITION     16650000
.*                                                              X04SVHS 16700000
         DC    X'00'                             VTAM FLAGS     X3004BH 16750000
         DC    B'&IDAPORE'              POST/RESPOND FLAGS      X04SVHS 16800000
         DC    B'&IDACON1'              DATA CONTROL            X04SVHS 16850000
         DC    B'&IDACON2'              DATA CONTROL            X04SVHS 16900000
         DC    B'&IDACON3'              SESSION CONTROL         X04SVHS 16950000
         AGO   .ACB                                             X3004BH 17000000
.*                                                              X3004BH 17050000
.* PROCESSING FOR VTAM FIELDS WHICH START AT OFFSET 60          X3004BH 17100000
.*                                                              X3004BH 17150000
.OVLY60  ANOP                                                   X3004BH 17200000
         DC    AL2(&OBSQVAL)            STSN OUTBOUND SEQ NO    X3004BH 17250000
         DC    AL2(&IBSQVAL)            STSN INBOUND SEQ NO     X3004BH 17300000
         DC    B'&IDAOBQC'              STSN OUTBOUND ACTION CODES      17350000
.*                                                              X04SVHS 17400000
         DC    B'&IDAIBQC'              STSN INBOUND ACTION CODES       17450000
.*                                                              X04SVHS 17500000
         DC    AL2(&SEQNO)              SEQUENCE NUMBER         X3004BH 17550000
         AGO   .TSTBRCH                                         X3004BH 17600000
         MEND                                                           17650000
