         MACRO                                                          03000003
&NAME    JX    &D,&A                    JUMP RELATIVE INDIRECT          06000003
         GBLA  &DISP                                                    07000000
         GBLC  &LBL1                                                    08000000
         LCLA  &DL                                                      09000003
         AIF   ('&D' LE '15').JX1                                       09700000
         MNOTE 4,'***  IHB349  DISPLACEMENT NOT 0-15 DIGITS'            10400000
.JX1     ANOP                                                           11100000
&DL      SETA  16*&D                                                    12000003
&NAME    DC    0H'0',X'BF',AL1(&DL),AL2(&A-&LBL1+&DISP)                 15000000
         MEND                                                           18000003
