         MACRO                                                          03000003
&NAME    JXTBL &A,&B,&C,&D,&E,&F,&G,&H,&I,&J,&K,&L,&M,&O,&P,&Q          06000003
         LCLA  &N,&S(16)                                                09000003
.CHK     ANOP                      TOP OF LOOP                          18000003
&N       SETA  &N+1                OPERAND PTR                          21000003
         AIF ('&SYSLIST(&N)' EQ '').SETZ  OPERAND OMITTED?              24000003
.*   IS OPERAND IN RANGE                                                27000003
         AIF   (&SYSLIST(&N) LE 255).OK                                 30000000
         MNOTE 8,'***  IHB361          ERROR IN OPERAND NUMBER &N'      33000000
.SETZ    ANOP                                                           36000003
&S(&N)   SETA  0                   OMITTED OPERAND SET TO ZERO          39000003
         AGO   .BL                                                      42000003
.OK      ANOP                                                           45000003
&S(&N)   SETA  &SYSLIST(&N)        OPERAND PROVIDED                     48000003
.BL      AIF   (&N LT 16).CHK      BOTTOM OF LOOP                       51000003
&NAME    DC    0H'0',AL1(&S(1)),AL1(&S(2)),AL1(&S(3)),AL1(&S(4))        54000000
         DC    AL1(&S(5)),AL1(&S(6)),AL1(&S(7)),AL1(&S(8)),AL1(&S(9))   57000000
         DC    AL1(&S(10)),AL1(&S(11)),AL1(&S(12))                      60000000
         DC    AL1(&S(13)),AL1(&S(14)),AL1(&S(15)),AL1(&S(16))          63000000
         MEND                                                           66000003
