         MACRO                    LOAD AUXILIARY STORAGE       @ZA04484 00050003
&NAME    LAS   &L,&A                                           @ZA04484 00100003
         AIF   ('&L' NE '0' AND '&L' LT '17').L1               @ZA04484 00150003
         MNOTE 12,'***  IHB350  LENGTH NOT 1-16 DIGITS'                 00300003
.L1      ANOP                                                  @ZA04484 00350003
&NAME    DC    0H'0',X'C1',AL1(16*0+&L-1),AL2(&A)                       00400003
         MEND                                                  @ZA04484 00450003
