         MACRO                                                          03000003
&NAME    LF    &DL,&F                  LOAD WRK REG FROM ENTIRE FIELD   06000003
         GBLC  &DEF3890(250)                                   @ZA00766 07000003
         GBLA  &VAL3890(250)                                   @ZA00766 08000003
         LCLC  &OP,&LABEL                                      @ZA00766 09000003
         LCLA  &RL,&M                                          @ZA00766 10000003
&M       SETA  1                                               @ZA00766 11000003
         AIF   ('&F' LT '9').LF1       FIELD NOT 0-8                    12000003
         MNOTE 8,'***  IHB352  FIELD VALUE NOT 0-8; 0 ASSUMED'          15000003
&OP      SETC  '30'                                                     18000003
         AGO   .LF2                                                     21000003
.LF1     ANOP                                                           24000003
&OP      SETC  '3&F'                                                    27000003
.LF2     AIF   (N'&DL EQ 1).LF5        DL WAS EQU'D                     30000003
         AIF   ('&DL(1)' LT '16').LF3                                   33000003
         MNOTE 12,'***  IHB349  DISPLACEMENT NOT 0-15 DIGITS'           36000003
.LF3     AIF   ('&DL(2)' NE '0' AND '&DL(2)' LT '17').LF4               39000003
         MNOTE 12,'***  IHB350  LENGTH NOT 1-16 DIGITS'                 42000003
.LF4     ANOP                                                           45000003
&NAME    DC    0H'0',X'&OP',AL1(16*&DL(1)+&DL(2)-1)                     48000003
         AGO   .END                                                     51000003
.LF5     ANOP                                                           54000003
.LF7     AIF   (&M GT 250).LF8                                 @ZA00766 54300003
&LABEL   SETC  '&DEF3890(&M)'                                  @ZA00766 54600003
.LF9     AIF   ('&DL'   EQ '&LABEL').LF6                       @ZA00766 54900003
&M       SETA  &M+1                                            @ZA00766 55200003
         AGO   .LF7                                            @ZA00766 55500003
.LF8     ANOP                                                  @ZA00766 55800003
         MNOTE 12,'***   IHB425 &DL NOT EQUATED IN DWF MACRO'  @ZA00766 56100003
.LF6     ANOP                                                  @ZA00766 56400003
&RL      SETA  &VAL3890(&M)                                    @ZA00766 56700003
&NAME    DC    X'&OP',AL1(&RL)                                 @ZA00766 57000003
.END     MEND                                                           60000003
