*/* COPYRIGHT = 5647-A01                                             */ 00050000
*/*            THIS MODULE IS "RESTRICTED MATERIALS OF IBM"          */ 00100000
*/*            (C) COPYRIGHT IBM CORP. 1988, 2000                    */ 00150000
*/*            LICENSED MATERIALS - PROPERTY OF IBM                  */ 00200000
*/*                                                                  */ 00350000
*/* STATUS  = HBB7703                                                */ 00370000
*/*                                                                  */ 00390000
*/*01* EXTERNAL CLASSIFICATION: PI                                   */ 00410000
*/*01* END OF EXTERNAL CLASSIFICATION:                               */ 00430000
*/*                                                                  */ 00450000
*/* CHANGE ACTIVITY =                                                */ 00500000
*/*   $L1 =    AR    HBB3310 850901 PDXB: AR SUPPORT                 */ 00550000
*/*   $L2= 64BITCSV  HBB7703 981204 PD00XB: ESAME                    */ 00575000
*%/*                                                                    00600000
         MACRO                                                          00650000
&NAME    LINKX &EP=,&EPLOC=,&DE=,&PARAM=,&DCB=,&VL=,&ID=,&SF=I,        X00700000
               &MF=I,&ERRET=,&HIARCHY=,&LSEARCH=,&PLIST8=,&PLIST4= @L2C 00750000
         GBLB  &IHBSWA,&IHBSWB                                @G381P2A  00800000
         GBLC  &SYSAM64              AMODE 64                      @L2A 00801500
         GBLC  &SYSPLIST8            8-BYTE PARAMETER LIST         @L2A 00803000
         LCLC  &SAVEPLIST8           SAVED VALUE                   @L2A 00804500
         SYSSTATE TEST                                             @L2A 00806000
&SAVEPLIST8 SETC '&SYSPLIST8'                                      @L2A 00807500
&SYSPLIST8 SETC ''                                                 @L2A 00809000
.********************************************************************** 00810500
.*   VALIDATE PLIST4, PLIST8                                          * 00812000
.********************************************************************** 00813500
         AIF   ('&PLIST8' EQ '').PLIST8END                         @L2A 00815000
         AIF   ('&PLIST8' EQ 'YES' OR '&PLIST8' EQ 'NO').PLIST8END @L2A 00816500
         IHBERMAC 1001,PLIST8,&PLIST8                              @L2A 00818000
         AGO   .EXIT                                               @L2A 00819500
.PLIST8END ANOP                                                    @L2A 00821000
         AIF   ('&PLIST4' EQ '').PLIST4END                         @L2A 00822500
         AIF   ('&PLIST4' EQ 'YES' OR '&PLIST4' EQ 'NO').PLIST4END @L2A 00824000
         IHBERMAC 1001,PLIST4,&PLIST4                              @L2A 00825500
         AGO   .EXIT                                               @L2A 00827000
.PLIST4END ANOP                                                    @L2A 00828500
         AIF   ('&PLIST8' EQ '' OR '&PLIST4' EQ '').PLIST84END     @L2A 00830000
         IHBERMAC 1304,PLIST4,PLIST8                               @L2A 00831500
.PLIST84END ANOP                                                   @L2A 00833000
         AIF   ('&PLIST8' EQ 'YES').YESPL8                         @L2A 00834500
         AIF   ('&PLIST4' EQ 'NO').YESPL8                          @L2A 00836000
         AIF   ('&SYSAM64' EQ 'YES').YESPL8                        @L2A 00837500
         AIF   ('&PLIST8' NE 'YES').NOPL8                          @L2A 00839000
.YESPL8  ANOP                                                      @L2A 00840500
&SYSPLIST8 SETC 'YES'                                              @L2A 00842000
.NOPL8   ANOP                                                      @L2A 00843500
         AIF   ('&PLIST4' NE 'YES').NOPL4                          @L2A 00845000
&SYSPLIST8 SETC ''                                                 @L2A 00846500
.NOPL4   ANOP                                                      @L2A 00848000
&IHBSWA  SETB  ('&VL' EQ '1')                                 @G381P2A  00850000
&IHBSWB  SETB  ('&SF' EQ '(E,(15))')                          @G381P2A  00900000
         AIF   ('&MF' EQ 'L').E1                                        00950000
         AIF   ('&SF' EQ 'L' AND '&MF&PARAM&ID&VL' NE 'I').E2           01000000
         AIF   ('&NAME' EQ '' OR '&SF' EQ 'L').CONTA                    01050000
&NAME    DS    0H                                                       01100000
.CONTA   AIF   ('&PARAM' EQ '' AND '&MF(1)' NE 'E').CONTB               01150000
         IHBOPLTX  ,&PARAM,MF=&MF                                       01200000
.CONTB   ANOP                                                           01250000
&NAME    IHBINNRY &EP,&EPLOC,&DE,&DCB,&LSEARCH,                @G381P2AX01300000
               LINK,&PARAM,&MF,                                @G381P2AX01350000
               ERRET=&ERRET,SF=&SF,                            @G381P2AX01387500
               PLIST4=&PLIST4,PLIST8=&PLIST8                       @L2C 01425000
         AIF   ('&SF' EQ 'L').EXIT                             @G381P2A 01462500
         LA    15,7           LOAD LINK EXTENDED SVC ROUTING CODE       01500000
.*                                                             @G381P2A 01550000
         SVC   122                 ISSUE EXTENDED SVC          @G381P2A 01600000
         AIF   ('&ID' EQ '').EXIT                                       01650000
         DC    X'4700'             NOP INSTRUCTION WITH                 01700000
         DC    AL2(&ID)            ID IN LAST TWO BYTES                 01750000
         AGO   .EXIT                                                    01800000
.E1      IHBERMAC 84                                                    01850000
         AGO   .EXIT                                                    01900000
.E2      IHBERMAC 75                                                    01950000
.EXIT    ANOP                                                           01975000
&SYSPLIST8 SETC '&SAVEPLIST8'                                      @L2A 02000000
         MEND                                                           02025000
**/                                                                     02050000
*LINKX:  MACRO                                                          02100000
*        KEYS(MF,EP,DE,DCB,ID,SF,PARAM,ERRET,VL,LSEARCH,PLIST8,PLIST4)  02150000
*                            ;                            /*     @L2C*/ 02200000
*        ANS('?'||MACLABEL||'LINKXP '||MACLIST||MACKEYS||';');          02250000
*                                                         /* @G381P2A*/ 02300000
*%END;                                                    /* @G381P2A*/ 02350000
