*********************************************************************** 00001600
*PROPRIETARY V3 STATEMENT                                             * 00003600
*LICENSED MATERIALS - PROPERTY OF IBM                                 * 00005600
*"RESTRICTED MATERIALS OF IBM"                                        * 00007600
*5695-DF1                                                             * 00009600
*(C) COPYRIGHT 1992  IBM CORP.                                        * 00011600
*END PROPRIETARY V3 STATEMENT                                         * 00014600
*********************************************************************** 00017600
         MACRO                                                          00020000
&NAME    LOCATE &LIST                                                   00040000
         AIF   (T'&LIST EQ 'O').E1                                      00060000
&NAME    IHBINNRA &LIST                     LOAD REG 1                  00080000
         SVC   26                                LINK TO SERVICE ROUT.  00100000
         MEXIT                                                          00120000
.E1      IHBERMAC 34                    LIST ADDR MISSING               00140000
         MEND                                                           00160000
