         MACRO                                                          03000003
&NAME    LSW                                                            06000003
&NAME    DC    0H'0',XL2'4400'                                          09000003
         MEND                                                           12000003
