*   %GO TO MCHL1;                   /*                       @G64RP2H*/ 00025000
*                                                                       00050000
*/*                                                                     00091600
         MACRO                                                 @G64RP2H 00124400
&NAME    MCHEAD &DSECT=YES                                     @ZA81001 00157200
*                                                                    */ 00190000
*                                                                       00205000
*%MCHL1:                                                                00220000
*   ;                               /*                       @G64RP2H*/ 00235000
*                                                                       00250000
*/** START OF SPECIFICATIONS *****************************************/ 00268100
*/* PROPRIETARY STATEMENT=                                           */ 00269600
*/***PROPRIETARY_STATEMENT********************************************/ 00271100
*/*                                                                  */ 00272600
*/*                                                                  */ 00274100
*/* LICENSED MATERIALS - PROPERTY OF IBM                             */ 00275600
*/* THIS MACRO IS "RESTRICTED MATERIALS OF IBM"                      */ 00277100
*/* 5647-A01 (C) COPYRIGHT IBM CORP. 1981, 1999                      */ 00278600
*/*                                                                  */ 00280100
*/* STATUS= HBB6608                                                  */ 00281600
*/*                                                                  */ 00283100
*/***END_OF_PROPRIETARY_STATEMENT*************************************/ 00284600
*/*                                                                  */ 00286200
*/* $MAC(MCHEAD) COMP(SC111) PROD(HBB6608):                          */ 00292200
*/*                                                                  */ 00298200
*/* MACRO NAME: MCHEAD                                               */ 00310300
*/*                                                                  */ 00322400
*/* DESCRIPTIVE NAME: Monitor Call Routing Table Head  (MCHEAD)      */ 00340500
*/*                                                                  */ 00358600
*/* COMPONENT: GTF (SC111)                                           */ 00376700
*/*                                                                  */ 00394800
*/* EXTERNAL CLASSIFICATION:                                         */ 00405800
*/*   GUPI:INCLUDE                                                   */ 00416800
*/*   DMTI:BASE                                                      */ 00427800
*/* END OF EXTERNAL CLASSIFICATION:                                  */ 00438800
*/*                                                                  */ 00450000
*/* FUNCTION:  Describe the monitor call routine service queue head, */ 00500000
*/* the beginning of all tables for monitor call event routing.      */ 00550000
*/*                                                                  */ 01150000
*/* METHOD OF ACCESS:                                                */ 01200000
*/*                                                                  */ 01400000
*/* PL/X:  INCLUDE THE MCHEAD MAPPING MACRO.                         */ 01450000
*/* ASM:  INCLUDE THE MCHEAD MAPPING MACRO.                          */ 01500000
*/*                                                                  */ 01600000
*/*   DSECT NAME: MCHEAD                                             */ 01606000
*/*   EYE CATCHER: MCHEAD                                            */ 01612000
*/*     OFFSET: 0                                                    */ 01618000
*/*     LENGTH: 8                                                    */ 01624000
*/*                                                                  */ 01630000
*/* CREATED BY:  IEAVNP17 initializes the address of SETEVENT        */ 01640000
*/* entries during NIP.                                              */ 01650000
*/*                                                                  */ 01660000
*/* DELETED BY:  This control block is not deleted.                  */ 01669000
*/*                                                                  */ 01678000
*/* POINTED TO BY:  CVTGTFA which is set up by a VCON when the       */ 01686000
*/* nucleus is linkedited.  MCHEAD is contained in AHLMCIH.          */ 01694000
*/*                                                                  */ 01702000
*/* SERIALIZATION:  None.                                            */ 01708000
*/*                                                                  */ 01714000
*/* STORAGE ATTRIBUTES:                                              */ 01720000
*/*                                                                  */ 01726000
*/*   MAIN STORAGE: 60 bytes                                         */ 01732000
*/*   VIRTUAL STORAGE: 60 bytes                                      */ 01738000
*/*   AUXILIARY STORAGE: 0 bytes                                     */ 01744000
*/*   SUBPOOL:  None                                                 */ 01750000
*/*   KEY:  0                                                        */ 01756000
*/*   DATA SPACE: None                                               */ 01762000
*/*   RESIDENCY:  Nucleus                                            */ 01768000
*/*                                                                  */ 01774000
*/* SIZE: 60 bytes                                                   */ 01780000
*/*                                                                  */ 01786000
*/* DISTRIBUTION LIBRARY: AMACLIB                                    */ 01789500
*/*                                                                  */ 01793000
*/* ================================================================ */ 01796500
*/*                                                                  */ 01800000
*/* CHANGE-ACTIVITY                                                  */ 01850000
*/*   G860PXB -- ADD FIELD MCHUTEST                                  */ 01857300
*/* @ZA81001 - 07/13/84 CORRECT ERRORS IN ASSEMBLY VERSION           */ 01864600
*/*      OF MACRO                                                    */ 01871900
*/* $L1= AR HBB3310 851125 PD1X: MAINTAIN INTEGRITY OF CONTROL       */ 01879200
*/*      REGISTER 8.                                                 */ 01886500
*/* @YA18174 - 11/18/88 CREATE NEW BIT TO ENSURE THAT GTF ALWAYS     */ 01893800
*/*      CLEANS UP ON TERMINATION                                    */ 01901100
*/* @YA48458 - 12/09/91 CREATED THE NEW FIELD MCHSETDE TO STORE THE  */ 01908400
*/*      ENDING ADDRESS OF THE LOAD MODULE AHLSETD.                  */ 01915700
*/* $L2= GTFHM,HBB4410,880906,PDBH: ELIMINATE ADDRESSES OF THE       */ 01923000
*/*      AHLREAD SERVICE WHICH IS NO LONGER USED FOR DUMPING SUPPORT */ 01930300
*/* $L3= GTFHM,HBB4410,890206,PDBH: GTF HIMIPS ENHANCEMENTS TO       */ 01937600
*/*      ADD A FIELD WHICH WILL CONTAIN THE MAXIMUM AMOUNT OF USER   */ 01944900
*/*      DATA ACCEPTED ON ONE GTRACE INVOCATION                      */ 01952200
*/* $P1= PEO3914,HBB4410,900507,PD88DO: ADD A FIELD TO CONTAIN THE   */ 01959500
*/*      END ADDRESS OF THE MODULE AHLSETD FOR PGSER MACRO IN        */ 01966800
*/*      AHLSETEV                                                    */ 01974100
*/* $P2= PEO4505,HBB4410,900629,PD88DO: ELIMINATE END ADDRESS FOR    */ 01981400
*/*      PGSER FIX OR FREE OF MODULE AHLSETD                         */ 01988700
*/* $01= OY61075 HBB4420 930618 PD88XM: Add MCHVENQ to extend        */ 01996000
*/*      serialization of the GTF control blocks beyond the DEQ of   */ 02003300
*/*      the GTF resource.                                           */ 02010600
*/* $P2= PIG2269,HBB5510,930909,PDXM: CDPI Information.              */ 02017900
*/* $D1= DVT0001,HBB6606,971208,PDH6: DIAGxx TRAPs                   */ 02025200
*/* $P3= PWK0193,HBB6608,98239,PDE1: Add DISABLED=YES to GTRACE      */ 02032500
*/*      TEST=YES                                                    */ 02039800
*/* $P4= PWK0277,HBB6608,98278,PDE1: Correct continuation of         */ 02042500
*/*      MCHCTLRH in assembler portion of the macro                  */ 02045200
*/*                                                                  */ 02048100
*/** END OF SPECIFICATIONS *******************************************/ 02074000
*                                                                       02089200
*   %GO TO MCHL2;                   /*                       @G64RP2H*/ 02104400
*                                                                       02119600
*/*                                                                     02134800
         SPACE 1                                               @G64RP2H 02150000
MCHEAD   DSECT                                                 @G64RP2H 02200000
         DS    0F                                              @G64RP2H 02250000
MCHIDEN  DS    CL8    ECBDIC IDENTIFIER - MCHEAD               @G64RP2H 02300000
MCHCUR   DS    AL4    PTR TO CURRENT MCCE                      @G64RP2H 02350000
MCHCNT   DS    AL4    NO. OF ROUTINES USING CURRENT MCCE       @G64RP2H 02400000
MCHCTL   DS    0XL4   CURRENT MASK OF ACTIVE CLASSES IN CR8        @L1C 02425000
         DS    XL2    LEFT HALFWORD.                               @L1A 02450000
MCHCTLRH DS    0XL2   Right halfword containing the monitor call       *02457100
                      masks                                        @P4C 02464200
MCHCT0#E DS    1BL.015 Monitor call mask for classes 0-E           @D1A 02471300
MCHCTF   EQU   X'01'  Monitor call mask for class F - the IGVDIAGB     *02478400
                      class                                        @D1A 02485500
         ORG   MCHCTL+X'00000004'                                  @D1A 02492600
MCHDIS   DS    AL4    PTR USED TO DISABLE MCEE/MCCLE           @G64RP2H 02500000
MCHFLGS  DS    0F     FLAG BYTES                               @ZA81001 02550000
MCHFLG1  DS    B      FLAG BYTE 1                              @ZA81001 02600000
MCHACT   EQU   X'80'  MC ROUTING ACTIVE INDICATOR              @G64RP2H 02650000
MCHTERM  EQU   X'40'  MC ROUTING TERMINATION INDICATOR         @G64RP2H 02700000
MCHVENQ  EQU   X'10'  Extends the serializtion of the MC control blocks 02706600
*                     (that is required but not provided by the ENQ of  02713200
*                     the GTF resource) to cover the time between the   02719800
*                     SETEVENT INIT and the SETEVENT FREE          @01A 02726400
         DS    XL3                                             @ZA81001 02733300
         DS    0F     SKIP TO NEXT WORD                        @ZA81001 02766600
MCHSETE  DS    AL4    PTR TO ENABLED ENTRY TO AHLSETEV         @G64RP2H 02800000
MCHSETD  DS    AL4    PTR TO DISABLED ENTRY TO AHLSETEV        @G64RP2H 02850000
MCHMCER  DS    AL4    ADDRESS OF MC ROUTER AHLMCER             @G64RP2H 02900000
MCHFRRAD DS    AL4    ADDR OF AHLMCIH RECOVERY CODE            @G64RP2H 02950000
MCHMAXGT DS    AL4    MAXIMUM AMOUNT OF GTRACE DATA                @L3C 02975000
         DS    AL4    RESERVED                                     @P2C 03000000
MCHMCIHC DS    AL4    ADDR OF AHLMCIHC ENTRY IN AHLMCIH        @G64RP2H 03100000
MCHUTEST DS    AL4    ADDRESS OF SERVICE IN AHLMCIH TO DETERMINE IF    *03150000
                      SPECIFIC USER EID WAS SPECIFIED ON START OF      *03200000
                      GTF                                      @G860PXB 03250000
MCHSETDE DS    AL4    ENDING ADDRESS OF THE LOAD MODULE AHLSETD        *03266600
                                                               @YA48458 03283200
MCHUTES0 DS    AL4    Address of service in AHLMCIH to determine if    *03311000
                      specific user EID was specified on start of      *03338800
                      GTF (GTRACE TEST=YES,DISABLED=YES)           @P3A 03366600
         MEND  ,                                               @G64RP2H 03394400
*                                                                    */ 03422200
*                                                                       03450000
*%MCHL2:                                                                03480000
*   ;                               /*                       @G64RP2H*/ 03525000
*   DECLARE                                                             03570000
*     1    MCHEAD   BDY(DWORD) BASED(CVTGTFA), /*                @D1C*/ 03600000
*      2    MCHIDEN  CHAR(8),       /* EBDIC IDENTIFIER - MCHEAD     */ 03630000
*      2    MCHCUR   PTR(31),       /* @ CURRENT MCCE                */ 03660000
*      2    MCHCNT   PTR(31),       /* USE COUNT OF NUMBER OF           03690000
*                                      ROUTINES USING CURRENT MCCE   */ 03720000
*      2    MCHCTL   FIXED(32),     /* CURRENT MASK OF ACTIVE CLASSES   03750000
*                                      IN CONTROL REGISTER 8         */ 03780000
*         5    *        BIT(16),    /* LEFT HALFWORD.            @L1A*/ 03810000
*         5    MCHCTLRH BIT(16),    /* Right halfword containing the    03840000
*                                      monitor call masks        @L1A*/ 03870000
*           7    MCHCT0#E BIT(15),  /* Monitor call mask for classes    03900000
*                                      0-E                       @D1A*/ 03930000
*           7    MCHCTF   BIT(1),   /* Monitor call mask for class F    03960000
*                                      - the IGVDIAGB class      @D1A*/ 03990000
*      2    MCHDIS   PTR(31),       /* @ USED TO DISABLE MCEE/MCCLE     04020000
*                                      (RETURN TO AHLMCIH)           */ 04050000
*      2    MCHFLGS  CHAR(4),       /* FLAG BYTES                    */ 04080000
*       3    MCHFLG1  BIT(8),       /* FLAG BYTE                     */ 04110000
*        4    MCHACT   BIT(1),      /* MC ROUTING ACTIVE INDICATOR   */ 04140000
*        4    MCHTERM  BIT(1),      /* MC ROUTING TERMINATION INDIC  */ 04170000
*        4    MCHSTOP  BIT(1),      /* Reserved. Used in HBB3310 and    04200000
*                                      below.                    @01C*/ 04230000
*        4    MCHVENQ  BIT(1),      /* Extends the serialization of     04260000
*                                      the MC control blocks (that is   04290000
*                                      required but not provided by     04320000
*                                      the ENQ of the GTF resource)     04350000
*                                      to cover the time between the    04380000
*                                      SETEVENT INIT and the SETEVENT   04410000
*                                      FREE.                     @01A*/ 04440000
*        4    *        BIT(4),      /* UNUSED                    @01C*/ 04470000
*       3    *        CHAR(3),      /* RESERVED                      */ 04500000
*      2    MCHSETE  PTR(31),       /* @ ENABLED ENTRY TO AHLSETEV   */ 04530000
*      2    MCHSETD  PTR(31),       /* @ DISABLED ENTRY TO AHLSETEV  */ 04560000
*      2    MCHMCER  PTR(31),       /* ADDRESS OF MC ROUTER AHLMCER  */ 04590000
*      2    MCHFRRAD PTR(31),       /* ADDR OF AHLMCIH RECOVERY CODE */ 04620000
*      2    MCHMAXGT FIXED(32),     /* MAXIMUM AMOUNT OF GTRACE DATA    04650000
*                                      ACCEPTED ON ONE INVOCATION OF    04680000
*                                      GTRACE                    @L3C*/ 04710000
*      2    *        CHAR(4),       /* RESERVED                  @P2C*/ 04740000
*      2    MCHMCIHC PTR(31),       /* ADDRESS OF MCIHC ENTRY POINT     04776000
*                                      IN MCIH FOR USE BY HOOK          04812000
*                                      TYPE=BPN2 MACRO EXPANSION        04848000
*                                                            @G64RP2H*/ 04884000
*      2    MCHUTEST PTR(31),       /* ADDRESS OF SERVICE IN AHLMCIH    04920000
*                                      TO DETERMINE IF SPECIFIC USER    04950000
*                                      EID WAS SPECIFIED ON START OF    05000000
*                                      GTF                   @G860PXB*/ 05050000
*      2    MCHSETDE PTR(31),       /* ENDING ADDRESS OF LOAD MODULE    05100000
*                                      AHLSETD               @YA48458*/ 05150000
*      2    MCHUTES0 PTR(31);       /* Address of service in AHLMCIH    05200000
*                                      to determine if specific user    05250000
*                                      EID was specified on start of    05300000
*                                      GTF (GTRACE TEST(YES)            05350000
*                                      DISABLED(YES))            @P3A*/ 05400000
