         MACRO                                                          00050000
&NAME   MSGDISP  &SERVICE,&DEBUG,                                      C00100000
               &DCB=,&TXT=,&MF=,&UCB=,&SER=,&LABEL=,                   C00150000
               &DISP=,&MSER=,&MLABEL=,&UCBL=,&TXT2=,                   C00200000
               &VOL=,&FLASH=,&FORCE=,&WAIT=,&TEST=,                    c00237500
               &INDEX=,&MEDIATYPE=                                 @02c 00294990
.* ******************************************************************** 00314980
.*$MAC(MSGDISP) : MESSAGE DISPLAY MACRO                               * 00350000
.*                                                                    * 00359990
.*                                                                    * 00387500
.* FUNCTION - ESTABLISH PROTOCOLS TO REQUEST MSGDISP SERVICE          * 00425000
.*                                                                    * 00462500
.********************************************************************** 00500000
.*  PROPRIETARY V3 STATEMENT                                          * 00537500
.*  LICENSED MATERIALS - PROPERTY OF IBM                              * 00575000
.*  "RESTRICTED MATERIALS OF IBM"                                     * 00612500
.*  5695-DF1                                                          * 00650000
.*  (C) COPYRIGHT 1983,1984  IBM CORP.                                * 00687500
.*  END PROPRIETARY V3 STATEMENT                                      * 00725000
.********************************************************************** 00762500
.*                                                                    * 00800000
.* STATUS =  DFSMS 1.6.0                                          @L1C* 00837790
.*                                                                    * 00838080
.* The MEDIATYPE keyword is being added for MTL, supported        @02a* 00838370
.* invocations of the keyword will be by coding the explicit      @02a* 00838660
.* unquoted literal or by passing the address of a one byte       @02a* 00838950
.* area containing the value.  In addition this form of           @02a* 00839240
.* invocation will be extended to the INDEX keyword.              @02a* 00839530
.*                                                                @02a* 00839820
.* Additional changes made with this support will be to add       @02a* 00840110
.* explicit indicators for RX format and 'unquoted literal'       @02a* 00840400
.* specifications.                                                @02a* 00840690
.*                                                                @02a* 00840980
.* An unquoted literal is one that takes on the explicit value    @02a* 00841270
.* that is specified in the macro invocation.  An example of      @02a* 00841560
.* that is the YES/NO specification that can used with the        @02a* 00841850
.* TEST, WAIT, and INDEX keywords.  In other words the macro      @02a* 00842140
.* invocation looks like:                                         @02a* 00842430
.*                                                                @02a* 00842720
.*         MSGDISP MOUNT,SER='ABC',UCB=(2),TEST=YES,...           @02a* 00843010
.*                                                                @02a* 00843300
.* In this example, YES is an unquoted literal, where 'ABC' on    @02a* 00843590
.* the SER keyword is a quoted literal, referred to as LITERAL    @02a* 00843880
.* in this macro.                                                 @02a* 00844170
.*                                                                @02a* 00844460
.* The logic in the macro, heretofore, has been that explicit     @02a* 00844750
.* checks for NULL, LITERAL, ADCON, REG (2-12), REG01 (0 and 1)   @02a* 00845040
.* are made and bits set if that specific format is detected.     @02a* 00845330
.* If none of the flags are on, it is assumed that the format     @02a* 00845620
.* is RX, though no bit is set to indicate this.  This, of        @02a* 00845910
.* course, applies to the unquoted literal specification.  One    @02a* 00846200
.* ramification of the use of the unquoted literal is that it     @02a* 00846490
.* is mutually exclusive of the RX format.                        @02a* 00846780
.*                                                                      00847070
.* The format of the parameter list built and passed to           @02a* 00847360
.* IGX00030 is also changing in a way incompatible with           @02a* 00847650
.* previous versions of the SVC, which means that a compilation   @02a* 00847940
.* using this version of the macro will not work with old         @02a* 00848230
.* versions of IGX00030.  The formats of the parameter lists      @02a* 00848520
.* are compared below:                                            @02a* 00848810
.*                                                                @02a* 00849100
.*                                                                @02a* 00849390
.*     Old format:                                                @02a* 00849680
.*                                                                @02a* 00849970
.*     +--------------------------------------------------+       @02a* 00850260
.*  +0 |Service type|IOSLVL from |CART from   |   LAB     | +0    @02a* 00850550
.*     |MOUNT, RDY, |       FORCE|     VOL,   |    &      |       @02a* 00850840
.*     |VERIFY,...  |Flags:      |FLASH from  |   MLAB    |       @02a* 00851130
.*     |            |Force,      |      FLASH |           |       @02a* 00851420
.*     |            |NoWait,     |            |           |       @02a* 00851710
.*     |            |1 UCB vs    |            |           |       @02a* 00852000
.*     |            |  UCBL,     |            |           |       @02a* 00852290
.*     |            |Don't Index |            |           |       @02a* 00852580
.*     +--------------------------------------------------+       @02a* 00852870
.*  +4 |              Pointer to TXT1 field               | +4    @02a* 00853160
.*     +--------------------------------------------------+       @02a* 00853450
.*  +8 |              Pointer to TXT2 field               | +8    @02a* 00853740
.*     +--------------------------------------------------+       @02a* 00854030
.*  +C |              Pointer to DCB/UCB                  | +12   @02a* 00854320
.*     +--------------------------------------------------+       @02a* 00854610
.*  +10| Beginning of literals for normal/list forms      | +16   @02a* 00854900
.*     +--------------------------------------------------+       @02a* 00855190
.*                                                                @02a* 00855480
.*                                                                @02a* 00855770
.*     New format:                                                @02a* 00856060
.*                                                                @02a* 00856350
.*     +--------------------------------------------------+       @02a* 00856640
.*  +0 |            |IOSLVL from |CART from   |    LAB    | +0    @02a* 00856930
.*     |    x'FF'   |       FORCE|     VOL,   |     &     |       @02a* 00857220
.*     |            |Flags:      |FLASH from  |    MLAB   |       @02a* 00857510
.*     | Indicates  | Force,     |      FLASH |           |       @02a* 00857800
.*     | new format | NoWait,    |            |           |       @02a* 00858090
.*     | plist      | 1 UCB vs   |            |           |       @02a* 00858380
.*     |            |   UCBL,    |            |           |       @02a* 00858670
.*     |            | Don't Index|            |           |       @02a* 00858960
.*     +--------------------------------------------------+       @02a* 00859250
.*  +4 |              Pointer to TXT1 field               | +4    @02a* 00859540
.*     +--------------------------------------------------+       @02a* 00859830
.*  +8 |              Pointer to TXT2 field               | +8    @02a* 00860120
.*     +--------------------------------------------------+       @02a* 00860410
.*  +C |              Pointer to DCB/UCB                  | +12   @02a* 00860700
.*     +--------------------------------------------------+       @02a* 00860990
.*  +10|Service type|New keywords|  Reserved  | Reserved  | +16   @02a* 00861280
.*     |MOUNT, RDY, |flags ind.  |            |           |       @02a* 00861570
.*     |VERIFY,...  |those that  |            |           |       @02a* 00861860
.*     |(previously |need pointer|            |           |       @02a* 00862150
.*     | at +0)     |in this     |            |           |       @02a* 00862440
.*     |            |plist.      |            |           |       @02a* 00862730
.*     |            |Currently:  |            |           |       @02a* 00863020
.*     |            |INDEX &     |            |           |       @02a* 00863310
.*     |            |MEDIATYPE   |            |           |       @02a* 00863600
.*     +--------------------------------------------------+       @02a* 00863890
.*  +14|              Pointer to Index field              | +20   @02a* 00864180
.*     +--------------------------------------------------+       @02a* 00864470
.*  +18|              Pointer to Mediatype field          | +24   @02a* 00864760
.*     +--------------------------------------------------+       @02a* 00865050
.*  +1C| Beginning of literals for normal/list forms      | +28   @02a* 00865340
.*     +--------------------------------------------------+       @02a* 00865630
.*                                                                @02a* 00865920
.*                                                                @02a* 00866210
.* Changes include:                                               @02a* 00866500
.*                                                                @02a* 00866790
.* - Explicit setting of an RX format indicator if supported,     @02a* 00867080
.*   If the RX format is detected, a check will be done to        @02a* 00867370
.*   ensure that the format is supported.  If not supported a     @02a* 00867660
.*   check to determine if the unquoted literal format is         @02a* 00867950
.*   supported.  If supported, an explicit flag indicator will    @02a* 00868240
.*   be set, if not supported, an error will be indicated.        @02a* 00868530
.*                                                                @02a* 00868820
.* - Determination of support of an indicated format and          @02a* 00869110
.*   flagging with an error if not supported.                     @02a* 00869400
.*                                                                    * 00869690
.* - Added a DEBUG feature to cause generation of MNOTE           @02a* 00869980
.*   debugging messages.                                          @02a* 00870270
.*                                                                    * 00870560
.*                                                                    * 00875000
.* CHANGE ACTIVITY =                                                  * 00912500
.*$H0=3480,HDQ1102,T81XXXX,STLJK:                                     * 00950000
.*$H1=3480,HDQ1102,KCD0149,STLHWB:                                    * 00987500
.*$H2=3480,JDP1111,,STLPKH:                                           * 01025000
.*$01=OZ98089,HDP2210,,088GEC: FIX SER=ADDRESS,MSER=LITERAL   @ZA98089* 01062500
.*$L1=UCBVSCR,HDZ11C0,SJPLLRU: UCB ABOVE THE LINE                 @L1A* 01100000
.*$H3=OW38736,HDZ11E0,SJPLLRU: BLYTHE2, ADD INDEX KEYWORD         @H3A* 01137500
.*$02=OW45271,HDZ11F0,SJPLLRU: MTL, New keyword MEDIATYPE             * 01147490
.*                             update INDEX keyword processing    @02A* 01157480
.*$03=OW47283,HDZ11F0,SJPLLRU: Change &LITIX -> &RXFMTIX for CHKRX    * 01161470
.*                             processing for DISP keyword, and       * 01165460
.*                             allow REG format for FORCE         @03A* 01169450
.*$04=OW47424,HDZ11E0,SJPLGSJ: CAUSES 0C4 WHEN CALLED FOR FORCE   @04A* 01171440
.*$05=OW48717,HDZ11E0,SJPLRDB: NOWAIT flag set for WAIT=YES.      @05A* 01171730
.*                             Instruction "IC 0,1(1)" causes IC  @05A* 01172020
.*                             into R0 from location 1 because R1 @05A* 01172310
.*                             does not contain parmlist address. @05A* 01172600
.*                             Location 1 contains the load PSW,  @05A* 01172890
.*                             including a bit that causes the    @05A* 01173180
.*                             NOWAIT flag to be set. Changed the @05A* 01173470
.*                             instruction to "IC 0,1+PARMPTR".   @05A* 01173760
.*$06=OW.....,HDZ11E0,SJPLRDB: Loop while processing TXT2 literal.@06A* 01174350
.********************************************************************** 01175000
.*                                                                    * 01212500
.**************************-*PSEUDOCODE*-****************************** 01250000
.*                                                                    * 01300000
.*MSGDISP :                                                           * 01350000
.* PROC .                                                             * 01400000
.* SET ATTRIBUTE BIT ARRAYS .                                         * 01450000
.* IF FUNCTION REQUESTED NOT VALID THEN                               * 01500000
.*   DO .                                                             * 01550000
.*     ISSUE ERROR MESSAGE CODE 12 .                                  * 01600000
.*     EXIT .                                                         * 01650000
.*   END .                                                            * 01700000
.* PROC ERROR CHECKING.                                               * 01750000
.*    /*THESE FUNCTIONS USE POSITIONAL OPRAND NUMBER TWO    */        * 01800000
.*    /*TO INVOKE CHECKING SERVICES WHICH ARE RESTRICTED TO */        * 01850000
.*    /* RECURSIVE INNER MACRO CALLS.                       */        * 01900000
.*    VERIFY NO KEYWORDS ARE SPECIFIED WHICH ARE                      * 01950000
.*       INCOMPATIBLE WITH THE  SERVICE REQUESTED .                   * 02000000
.*    VERIFY REQUIRED KEYWORDS FOR THIS SERVICE ARE SPECIFIED .       * 02050000
.*    VERIFY NO MUTUALLY  EXCLISIVE KEYWORDS ARE SPECIFIED .          * 02100000
.* END END OF ERROR CHECKING PROC.                                    * 02150000
.* CASE SELECT ACTION ON MF = OPRAND .                                * 02200000
.*   SUBCASE MF = E , EXECUTE FORM .                                  * 02250000
.*     EXAMINE EACH KEYWORD AND BUILD CODE TO SET PARAMETER LIST .    * 02300000
.*     BUILD SVC CALL AT LABEL 'SVCTEST' .                            * 02350000
.*   ENDSUB .                                                         * 02400000
.*   SUBCASE MF = '' , NORMAL FORM .                                  * 02450000
.*     EXPAND CODE TO SET REG1 TO ADDRESS OF PARAMETER LIST .         * 02500000
.*     PASS THROUGH LIST FORM SECTION TO BUILD PARAMETER LIST .       * 02550000
.*     EXPAND CODE FOR SVC CALL .                                     * 02600000
.*   ENDSUB .                                                         * 02650000
.*   SUBCASE MF = L , LIST FORM .                                     * 02700000
.*     EXPAND LIST USING SAME SECTION AS NORMAL FORM .                * 02750000
.*   ENDSUB .                                                         * 02800000
.* ENDCASE .                                                          * 02850000
.* END MSGDISP .                                                      * 02900000
.*************************-END-PSEUDOCODE-****************************/ 02950000
.*                                                                   *  03050000
.*********************************************************************  03075000
.*            LOCAL WORK SYMBOLS                                    *   03109990
.*********************************************************************  03119980
.*                                                                      03129970
         LCLC       &LABEL1,&WORK1,&WORK2,&FLAGS,&FUNCTON         @02c  03139960
         LCLC       &F0,&F1,&F2,&F3,&F4,&FH,&FT,&FS               @H2C  03149950
         LCLC       &LITVALINDEX             Extracted literal val@02a  03159940
         LCLA       &LENGTH,&KNT,&J                               @02A  03169930
         LCLB       &DEBUGON                                      @02a  03179920
.*                                                                      03189910
.*********************************************************************  03200000
.* The following arrays, referred to as the 'F' arrays, reflect      *  03200090
.* what was specified on the call to this macro.  The bit positions  *  03200180
.* correspond to the format specified on the call.  Both these       *  03200270
.* arrays and the FMT arrays use the same positional indices.  The   *  03200360
.* indices are defined by the &LITIX, &NULLIX, &REGIX, etc. defined  *  03200450
.* later.  Those indices are:                                        *  03200540
.*                                                                   *  03200630
.*            BIT 1 = 1 KEYWORD IS NULL                              *  03200720
.*            BIT 2 = 1 KEYWORD IS A LITERAL (quoted)                *  03200810
.*            BIT 3 = 1 KEYWORD IS A REG                             *  03200900
.*            BIT 4 = 1 KEYWORD IS REG 1 OR 0                        *  03200990
.*            BIT 5 = 1 KEYWORD IS AN ADCON                          *  03201080
.*            BIT 6 = 1 RX FORMAT                                @02c*  03201170
.*            BIT 7 = 1 UNQUOTED LITERAL                         @02c*  03201260
.*********************************************************************  03201350
         GBLB  &DCBF(7),&TXTF(7),&UCBF(7),&INDEXF(7)               @02c 03201440
         GBLB  &SERF(7),&LABELF(7),&DISPF(7),&MSERF(7)             @02c 03201530
         GBLB  &MLABELF(7),&UCBLF(7),&TXT2F(7),&WAITF(7)           @02c 03201620
         GBLB  &VOLF(7),&MFE(7),&FLASHF(7),&FORCEF(7),&TESTF(7)    @02c 03201710
         GBLB  &MEDTF(7)                                           @02a 03201800
.*                                                                      03201890
.*       *---------------------------------------------------*          03201980
.*       * Declare and set the index values used with the    *          03202070
.*       * 'F' arrays                                        *          03202160
.*       *---------------------------------------------------*          03202250
         GBLA    &NULLIX,&LITIX,&REGIX,&REG01IX,&ADCONIX,&RXFMTIX  @02c 03202340
         GBLA    &UNQUOTEIX,&HIGHIX                                @02a 03202430
.*                                                                      03202520
&NULLIX    SETA  1                                                      03202610
&LITIX     SETA  2                                                      03202700
&REGIX     SETA  3                                                      03202790
&REG01IX   SETA  4                                                      03202880
&ADCONIX   SETA  5                                                      03202970
&RXFMTIX   SETA  6                                                      03203060
&UNQUOTEIX SETA  7                                                      03203150
&HIGHIX    SETA  &UNQUOTEIX                 Set to highest index   @02a 03203240
.*                                                                      03203330
.*********************************************************************  03203420
.* Set up arrays with name of function and a bit map of the          *  03203510
.* keywords that are valid with that function.  This array is used   *  03203600
.* to detect keywords that are invalid for the service requested.    *  03203690
.*                                                                   *  03203780
.*                     MAP = 0 do not check                          *  03203870
.*                     MAP = 1 check for null                        *  03203960
.*                                                                   *  03204050
.* If a check is made and the value is not null issue an error       *  03204140
.* MNOTE, because the keyword is not valid with the service          *  03204230
.* requested.  The positions in the map variable are:                *  03204320
.*                                                                   *  03204410
.*  POSITION  KEYWORD   POSITION  KEYWORD   POSITION  KEYWORD        *  03204500
.*     1      DCB           8     MSER         15     FORCE          *  03204590
.*     2       ?            9     MLABEL       16     WAIT           *  03204680
.*     3      MF           10     UCBL         17     TEST           *  03204770
.*     4      UCB          11     TXT          18     INDEX          *  03204860
.*     5      SER          12     TXT2         19     MEDIATYPE      *  03204950
.*     6      LABEL        13     VOL                                *  03205040
.*     7      DISP         14     FLASH                              *  03205130
.*********************************************************************  03205220
         LCLC     &SVCR(7),&MAP(7),&M                                   03205310
&SVCR(1) SETC    'RDY'                                                  03205400
&MAP(1)  SETC    '0101111111011111111'                             @02C 03205490
&SVCR(2) SETC    'MOUNT'                                                03205580
&MAP(2)  SETC    '1100001111111100000'                             @02C 03205670
&SVCR(3) SETC    'VERIFY'                                               03205760
&MAP(3)  SETC    '1000001111111100011'                             @02C 03205850
&SVCR(4) SETC    'DEMOUNT'                                              03205940
&MAP(4)  SETC    '1100010001111100000'                             @02C 03206030
&SVCR(5) SETC    'RESET'                                                03206120
&MAP(5)  SETC    '1100111110111100011'                             @02C 03206210
&SVCR(6) SETC    'GEN'                                                  03206300
&MAP(6)  SETC    '1100111111000000011'                             @02C 03206390
.*                                                                      03206480
.*********************************************************************  03206570
.* This array definition added with MTL changes.                 @02a*  03206660
.*                                                                   *  03206750
.* Set up arrays with name of the keywords and their valid formats.  *  03206840
.* A 1 in the format position for a given keyword indicates that     *  03206930
.* the format is valid for that keyword.  A 0 indicates the format   *  03207020
.* is not valid for that keyword.                                    *  03207110
.*                                                                   *  03207200
.* Exceptions have to be treated separately.  The only current       *  03207290
.* exception is that register 1, REG01, cannot be specified for the  *  03207380
.* address in MF=(E,addr) on the GEN function.                       *  03207470
.*                                                                   *  03207560
.* Errors will be noted via an MNOTE 12.                             *  03207650
.*                                                                   *  03207740
.* The positions in the format array, FMT must be kept the same as   *  03207830
.* their positions in the DCBF, WAITF, etc arrays, ie, the           *  03207920
.* positions use the same index variables, &LITIX, &NULLIX, etc.     *  03208010
.*                                                                   *  03208100
.*  POSITION  KEYWORD                                                *  03208190
.*     1      NULL (CHKFMT never called when NULL on)                *  03208280
.*     2      LITERAL                                                *  03208370
.*     3      REG (2-12)                                             *  03208460
.*     4      REG01 (0, 1)                                           *  03208550
.*     5      ADCON                                                  *  03208640
.*     6      RXFMT                                                  *  03208730
.*     7      UNQUOTE (unquoted literal)                             *  03208820
.*                                                                   *  03208910
.* In addition, each keyword has an index variable set to the        *  03209000
.* corresponding index value in the KYWD array as do each of the     *  03209090
.* format bits in the FMT array.  If any of these indices change so  *  03209180
.* must the related index variables.                                 *  03209270
.*************************************************************** @02a*  03209360
         GBLC    &KYWD(19),&FMT(19)                                     03209450
.*                                                                      03209540
.*       *---------------------------------------------------*          03209630
.*       * Set the KYWD and FMT array values                 *          03209720
.*       *---------------------------------------------------*          03209810
&KYWD(1)    SETC 'DCB'                                                  03209900
&FMT(1)     SETC '1010110'                                              03209990
&KYWD(2)    SETC 'DISP'                                                 03210080
&FMT(2)     SETC '1110110'                                              03210170
&KYWD(3)    SETC 'FLASH'                                                03210260
&FMT(3)     SETC '1000001'                                              03210350
&KYWD(4)    SETC 'FORCE'                                                03210440
&FMT(4)     SETC '1011001'                                        @03c  03210530
&KYWD(5)    SETC 'INDEX'                                                03210620
&FMT(5)     SETC '1110101'                                              03210710
&KYWD(6)    SETC 'LABEL'                                                03210800
&FMT(6)     SETC '1110110'                                              03210890
&KYWD(7)    SETC 'MEDIATYPE'                                            03210980
&FMT(7)     SETC '1110110'                                              03211070
&KYWD(8)    SETC 'MF'                                                   03211160
&FMT(8)     SETC '1011010'                                              03211250
&KYWD(9)    SETC 'MLABEL'                                               03211340
&FMT(9)     SETC '1110110'                                              03211430
&KYWD(10)   SETC 'MSER'                                                 03211520
&FMT(10)    SETC '1110110'                                              03211610
&KYWD(11)   SETC 'SER'                                                  03211700
&FMT(11)    SETC '1110110'                                              03211790
&KYWD(12)   SETC 'TEST'                                                 03211880
&FMT(12)    SETC '1000001'                                              03211970
&KYWD(13)   SETC 'TXT'                                                  03212060
&FMT(13)    SETC '1110110'                                              03212150
&KYWD(14)   SETC 'TXT2'                                                 03212240
&FMT(14)    SETC '1110110'                                              03212330
&KYWD(15)   SETC 'UCB'                                                  03212420
&FMT(15)    SETC '1010000'                                              03212510
&KYWD(16)   SETC 'UCBL'                                                 03212600
&FMT(16)    SETC '1011110'                                              03212690
&KYWD(17)   SETC 'VOL'                                                  03212780
&FMT(17)    SETC '1000001'                                              03212870
&KYWD(18)   SETC 'WAIT'                                                 03212960
&FMT(18)    SETC '1000001'                                              03213050
.*                                                                      03213140
.*       *---------------------------------------------------*          03213230
.*       * Declare and set the index values used with the    *          03213320
.*       * KYWD and FMT arrays.                              *          03213410
.*       *---------------------------------------------------*          03213500
         GBLA    &DCBIX, &DISPIX,&FLASHIX,&FORCEIX,&INDEXIX             03213590
         GBLA    &LABELIX,&MEDTIX,&MFIX,&MLABELIX,&MSERIX,&SERIX        03213680
         GBLA    &TESTIX,&TXTIX,&TXT2IX,&UCBIX,&UCBLIX,&VOLIX           03213770
         GBLA    &WAITIX                                                03213860
.*                                                                      03213950
&DCBIX     SETA  1                                                      03214040
&DISPIX    SETA  2                                                      03214130
&FLASHIX   SETA  3                                                      03214220
&FORCEIX   SETA  4                                                      03214310
&INDEXIX   SETA  5                                                      03214400
&LABELIX   SETA  6                                                      03214490
&MEDTIX    SETA  7                                                      03214580
&MFIX      SETA  8                                                      03214670