*%/*   START OF PL/X COMMENT ENDING ON %MACRO STATEMENT          @L2A   00010000
         MACRO                                                          00020000
&NAME    NOTE  &DCB,&TYPE=REL,&DECB=                              @L3C  00024400
.* $MAC(NOTE):                                                          00028800
.*PROPRIETARY V3 STATEMENT                                              00031600
.*LICENSED MATERIALS - PROPERTY OF IBM                                  00034400
.*"RESTRICTED MATERIALS OF IBM"                                         00037200
.*5695-DF1                                                              00040000
.*(C) COPYRIGHT 1994  IBM CORP.                                         00042800
.*END PROPRIETARY V3 STATEMENT                                          00045600
.* STATUS =  DFSMS/MVS VERSION 1 RELEASE 2.0                      @L3C  00048800
.*                                                                      00051900
.* CHANGE ACTIVITY =                                                    00053000
.*                                                                      00054100
.* $H1=3480,JDP1111,,STLPKH:  3480 SUPPORT                           *  00055200
.* $L1=31BIT,JDZ1110,,SJPLRK:  INVOCABLE IN 31-BIT MODE           @L1A  00056400
.* $L2=PLX  ,JDZ1110,930930,SJPLMET: PL/X SUPPORT                 @L2A  00057000
.* $L3=NOTEDECB,HDZ11B0,940426,SJPLCC: SUPPORT DECB KEYWORD       @L3A  00057300
.*                                                                      00057600
         AIF   ('&DCB' EQ '').ERR                                       00060000
&NAME    IHBINNRA &DCB,&DECB                                       @L3C 00075000
         AIF   ('&TYPE' NE 'REL').NOTREL                           @H1A 00090000
         SLR   15,15                             CLEAR REGISTER    @L1A 00100000
         ICM   15,7,85(1)                        NOTE  RTN ADDRESS @L1C 00110000
         AIF   ('&DECB' NE '').DECBNT                              @L3A 00115000
         BALR  14,15                             LINK TO NOTE  ROUTINE  00120000
         MEXIT                                                          00140000
.DECBNT  BAS   14,8(,15)                         LINK TO NOTE RTN  @L3A 00140800
         MEXIT                                                     @L3A 00141600
.NOTREL  AIF   ('&TYPE' NE 'ABS').ERR1                             @H1A 00142500
         AIF   ('&DECB' NE '').ERR2                                @L3A 00143700
         SLR   0,0                      INDICATES NOTE MACRO       @H1A 00145000
         LA    15,32                    ROUTER CODE                @H1A 00147500
         SVC   109                      SUPERVISOR CALL            @H1A 00150000
         MEXIT                                                     @H1A 00152500
.ERR1    MNOTE 8,'INVALID PARAMETER FOR TYPE'                 @H1A      00155000
         MEXIT                                                     @H1A 00157500
.ERR2    MNOTE 8,'DECB KEYWORD NOT VALID WITH TYPE=ABS'            @L3A 00158300
         MEXIT                                                     @L3A 00159100
.ERR     IHBERMAC 6                                                     00160000
         MEND                                                           00180000
**/ NOTE: MACRO KEYS(1:1(DCB_NAME,DCB_ADDR),                   /*@L2A*/ 00230000
*                   0:1(CU_BLOCKID_NAME,CU_BLOCKID_ADDR),      /*@L2A*/ 00280000
*                   1:1(BLOCKID_NAME,BLOCKID_ADDR),            /*@L2A*/ 00330000
*                   0:1(BLOCKID_TYPE,ABS_BLOCK,REL_BLOCK),     /*@L2A*/ 00380000
*                       RETCODE,RSNCODE);                      /*@L2A*/ 00430000
* ANS('? '||MACLABEL||' NOTEP '||MACKEYS||';') RESCAN SKIP;    /*@L2A*/ 00480000
* %END NOTE;                                                   /*@L2A*/ 00530000
