         MACRO                                                          03000003
&NAME    OHI   &H,&I                    OR TO HEADER FROM IMM.          06000003
         LCLA  &V                                                       06500000
&V       SETA  &I                                                       07000000
         AIF   (&V LE 255).OH0                                          07500000
         MNOTE 8,'***  IHB421 IMMEDIATE VALUE EXCEEDS ALLOWED MAXIMUM'  08000000
.OH0     ANOP                                                           08500000
         AIF   ('&H' EQ '2' OR '&H' EQ '3' OR '&H' EQ '9').OH1          09000003
         AIF   ('&H' EQ '5' OR '&H' EQ '6').OH1                         12000000
         MNOTE 8,'***  IHB403 HEADER BYTE NOT 2,3,5,6 OR 9;2 ASSUMED'   13000000
&NAME    DC    0H'0',X'92',AL1(&I)                                      15000003
         AGO   .END                                                     18000003
.OH1     ANOP                                                           21000003
&NAME    DC    0H'0',AL.4(9),AL.4(&H),AL1(&I)                           24000003
.END     MEND                                                           27000003
