*%/*                                                               @L2A 00010000
         MACRO                                                          00020000
&NAME    OPEN  &PAR1,&MF=I,&TYPE=,&MODE=                           @01C 00021900
.*                                                                      00023800
.*OPEN MACRO                                                       @L1A 00027600
.*                                                                 @L1A 00031400
.*$MAC(OPEN):                                                      @L1A 00035200
.*                                                                 @L1A 00039000
.*PROPRIETARY V3 STATEMENT                                              00039900
.*LICENSED MATERIALS - PROPERTY OF IBM                                  00040800
.*"RESTRICTED MATERIALS OF IBM"                                         00041700
.*5695-DF1                                                              00042600
.*(C) COPYRIGHT 1987  IBM CORP.                                         00043500
.*END PROPRIETARY V3 STATEMENT                                          00045000
.*                                                                 @L1A 00046600
.* STATUS = MVS/XA DFP RELEASE 2.3                                 @L1C 00047800
.*                                                                 @L1A 00049000
.*CHANGE ACTIVITY - AS FOLLOWS:                                    @L1A 00050400
.*                                                                 @L1A 00054200
.*$L1=ACB31BIT,HDP2230,STLSS:  O/C/E SUPPORT OF 31-BIT VSAM        @L1A 00056700
.*$01=OY07793,HDP2230,870720,STLSS:REMOVE SPLEVEL DEPENDENCE       @01A 00059200
.*$L2=PLX    ,JDZ1110,930930,SJPLMT: ADD PL/X SUPPORT              @L2A 00060500
.*                                                                 @L1A 00061800
         GBLB  &IHBRDJ                  ON IF RDJFCB MACRO USED         00070000
.*                                                                 @01D 00085000
         LCLA  &ACTR,&ACTR2,&ASUM,&CTR,&CTR1,&LGTH,&NUMBER         @L1C 00100000
         LCLB  &MFESW,&MFISW,&MFI2SW,&B(12),&NULLSW,&OPT2SW,&MSW   @L1C 00120000
         LCLC  &PARA                                                    00140000
.*                                                                 @01D 00180000
&NUMBER  SETA  N'&PAR1                                                  00220000
.*                                                                 @01D 00230000
&CTR     SETA  1                                                        00240000
&CTR1    SETA  2                                                        00260000
         AIF   (N'&SYSLIST LE 1).TYPE   IF ONLY 1 (PARMLIST)     A45585 00285000
         IHBERMAC 238                   EXCESSIVE POS. PARMS     A45585 00290000
.TYPE    AIF   (T'&TYPE NE 'O' AND '&TYPE' NE 'J').ERROR8        A45585 00295000
         AIF   (T'&MODE EQ 'O').MFTEST                             @L1A 00298500
         AIF   ('&MODE' NE '31' AND '&MODE' NE '24').ERROR9        @L1A 00302000
         AIF   ('&MODE' EQ '31' AND '&TYPE' EQ 'J').ERROR7         @L1A 00305500
         AIF   ('&MODE' EQ '24').MFTEST                            @L1A 00309000
&MSW     SETB  1                       SET MODE=31 SWITCH          @L1A 00312500
.MFTEST  AIF   ('&MF' EQ 'L').RTEL                                 @L1C 00316000
         AIF   ('&MF' EQ 'I').TESTI                                     00320000
         AIF   (N'&MF LE 1).ERROR3                                      00340000
         AIF   ('&MF(1)' NE 'E').ERROR3                                 00360000
&NAME    IHBINNRA &MF(2)                    LOAD REG 1 WITH LIST ADDR   00380000
         AGO   .ISSSVC                                                  00400000
.*--------------------------------------------------------------------- 00420000
.RTEL    ANOP                                                           00460000
&NAME    DC    0F'0'                             ALIGN LIST TO FULLWORD 00480000
         AIF   ('&PAR1' EQ '').ERROR5                                   00490000
.CLRSW   ANOP                                                           00500000
&ASUM    SETA  0                                                        00520000
         AIF   (&CTR1 GT &NUMBER).J                                     00560000
         AIF   ('&PAR1(&CTR1)' EQ '').DC1                               00580000
         AIF   ('&PAR1(&CTR1)'(1,1) NE '(').NOPAREN                     00600000
&B(1)    SETB  ('&PAR1(&CTR1)'(2,5) EQ 'INPUT')                         00620000
&B(2)    SETB  ('&PAR1(&CTR1)'(2,6) EQ 'RDBACK')                        00640000
&B(3)    SETB  ('&PAR1(&CTR1)'(2,5) EQ 'INOUT')                         00660000
&B(4)    SETB  ('&PAR1(&CTR1)'(2,5) EQ 'UPDAT')                         00680000
&B(11)   SETB  ('&PAR1(&CTR1)'(2,6) EQ 'OUTINX')               @Z40JSGD 00690000
&B(5)    SETB  ('&PAR1(&CTR1)'(2,5) EQ 'OUTIN' AND NOT &B(11)) @Z40JSGD 00700000
&B(6)    SETB  ('&PAR1(&CTR1)'(2,6) EQ 'OUTPUT')                        00720000
&B(12)   SETB  ('&PAR1(&CTR1)'(2,6) EQ 'EXTEND')               @Z40JSGD 00730000
         AIF   (K'&PAR1(&CTR1) LE 8).STOPNOW                            00740000
&B(7)    SETB  ('&PAR1(&CTR1)'(8,4) EQ 'LEAV'  OR '&PAR1(&CTR1)'(9,4) EX00760000
               Q 'LEAV')                                                00780000
&B(8)    SETB  ('&PAR1(&CTR1)'(8,4) EQ 'RERE' OR '&PAR1(&CTR1)'(9,4) EQX00800000
                'RERE')                                                 00820000
&B(9)    SETB  ('&PAR1(&CTR1)'(8,4) EQ 'DISP' OR '&PAR1(&CTR1)'(9,4) EQX00840000
                'DISP')                                                 00860000
&B(10)   SETB  ('&PAR1(&CTR1)'(8,4) EQ 'IDLE' OR '&PAR1(&CTR1)'(9,4) EQX00880000
                'IDLE')                                                 00900000
&OPT2SW  SETB  1                                                        00920000
         AIF   (&B(7)+&B(8)+&B(9)+&B(10) NE 1).ERROR1                   00940000
.STOPNOW AIF   (&B(1)+&B(2)+&B(3)+&B(4)+&B(5)+&B(6)+&B(11)+&B(12) NE 1)X00960000
               .ERROR1                                         @Z40JSGD 00970000
&ASUM    SETA  &B(2)+3*&B(3)+4*&B(4)+7*&B(5)+15*&B(6)+48*&B(7)+16*&B(8)X00980000
               +32*&B(10)+6*&B(11)+14*&B(12)                   @Z40JSGD 01000000
         AGO   .RESET                                                   01020000
.NOPAREN ANOP                                                           01040000
&B(1)    SETB  ('&PAR1(&CTR1)' EQ 'INPUT')                              01060000
&B(2)    SETB  ('&PAR1(&CTR1)' EQ 'RDBACK')                             01080000
&B(3)    SETB  ('&PAR1(&CTR1)' EQ 'INOUT')                              01100000
&B(4)    SETB  ('&PAR1(&CTR1)' EQ 'UPDAT')                              01120000
&B(5)    SETB  ('&PAR1(&CTR1)' EQ 'OUTIN')                              01140000
&B(6)    SETB  ('&PAR1(&CTR1)' EQ 'OUTPUT')                             01160000
&B(11)   SETB  ('&PAR1(&CTR1)' EQ 'OUTINX')                    @Z40JSGD 01170000
&B(12)   SETB  ('&PAR1(&CTR1)' EQ 'EXTEND')                    @Z40JSGD 01172000
         AGO   .STOPNOW                                                 01180000
.RESET   ANOP                                                           01200000
&B(7)    SETB  0                                                        01220000
&B(8)    SETB  0                                                        01240000
&B(10)   SETB  0                                                        01260000
.DC1     AIF   (&MFESW).ERTRTRN                                         01280000
         AIF   (&CTR1 LT &NUMBER).K                                     01300000
.J       ANOP                                                           01380000
&ASUM    SETA  &ASUM+128                                                01420000
.K       AIF   (&MFI2SW).I2ROUT                                         01440000
         AIF   (&MFISW).IROUTRN                                         01460000
         DC    AL1(&ASUM)                   OPTION BYTE                 01470000
         AIF   (NOT &MSW).OLDPARM           MODE BIT NOT SET       @L1A 01480000
.NEWPARM DC    AL3(0)                       RESERVED               @L1A 01490000
         AIF   ('&PAR1(&CTR)' NE '').NOBLNK2                       @L1A 01500000
         DC    A(0)                                                @L1A 01510000
         AGO   .NOTLST                                             @L1A 01520000
.NOBLNK2 AIF   ('&PAR1(&CTR)'(1,1) EQ '(').ERROR6                  @L1A 01530000
         DC    A(&PAR1(&CTR))               DCB ADDRESS            @L1A 01540000
         AGO   .NOTLST                                             @L1A 01550000
.OLDPARM AIF   ('&PAR1(&CTR)' NE '').NOBLANK                       @L1C 01560000
         DC    AL3(0)                       DCB ADDRESS                 01570000
         AGO   .NOTLST                                                  01580000
.NOBLANK AIF   ('&PAR1(&CTR)'(1,1) EQ '(').ERROR6                       01600000
         DC    AL3(&PAR1(&CTR))             DCB ADDRESS                 01620000
.NOTLST  AIF   (&CTR1 GE &NUMBER).FINI                                  01640000
&CTR     SETA  &CTR+2                                                   01660000
&CTR1    SETA  &CTR1+2                                                  01680000
         AGO   .CLRSW                                                   01700000
.*--------------------------------------------------------------------- 01720000
.TESTI   AIF   (&MSW).LPLIST                MODE=31;BRANCH         @L1A 01733300
         CNOP  0,4                          ALIGN LIST TO FULLWORD      01746600
&LGTH    SETA  ((&NUMBER+1)/2)*4+4                                      01760000
         AIF   (T'&MODE EQ 'O').LEV1        BR IF MODE NOT SPECD.  @01C 01762000
.* THE BAS INSTRUCTION REQUIRES ASSEMBLER H VERSION 2                   01764000
&NAME    BAS   1,*+&LGTH                    LOAD REG1 W/LIST ADDR.      01766000
         AGO   .CONT                                               @L1A 01772000
.LEV1    ANOP                                                      @L2A 01773500
&NAME    BAL   1,*+&LGTH                    LOAD REG1 W/LIST ADDR. @L2A 01775000
         AGO   .CONT                                               @L2A 01776500
.LPLIST  ANOP                                                      @L1A 01778000
         CNOP  0,4                          ALIGN LIST TO HALFWORD @L1A 01784000
&LGTH    SETA  ((&NUMBER+1)/2)*8+4                                 @L1A 01790000
         AIF   (T'&MODE EQ 'O').LEV2        BR IF MODE NOT SPECD.  @01C 01792000
.* THE BAS INSTRUCTION REQUIRES ASSEMBLER H VERSION 2                   01794000
&NAME    BAS   1,*+&LGTH                    LOAD REG1 W/LIST ADDR.      01796000
         AGO   .CONT                                               @L1A 01799000
.LEV2    ANOP                                                      @L2A 01802000
&NAME    BAL   1,*+&LGTH                    LOAD REG1 W/LIST ADDR. @L2A 01805000
.CONT    ANOP                                                      @L1A 01808000
&MFISW   SETB  1                            MF=I SWITCH            @L1C 01814000
.RTEYE   AIF   ('&PAR1(&CTR)' EQ '').ERROR5                             01820000
         AIF   ('&PAR1(&CTR)'(1,1) NE '(').CLRSW                        01840000
         AIF   (NOT &MSW).SPL1              MODE=24; BRANCH        @L1A 01845700
         DC    A(0)                         OPTION BYTE            @L1A 01851400
         DC    A(0)                         DCB ADDRESS            @L1A 01857100
         AGO   .UPCTRS                                             @L1A 01862800
.SPL1    ANOP                               FOR MODE=24            @L1A 01868500
         DC    A(0)                         OPT BYTE AND DCB ADDR.      01874200
         AGO   .UPCTRS                                                  01880000
.IROUTRN DC    AL1(&ASUM)                   OPTION BYTE                 01888500
         AIF   (&MSW).IROUT3                MODE=31; BRANCH        @L1A 01897000
         DC    AL3(&PAR1(&CTR))             DCB ADDRESS                 01905500
         AGO   .UPCTRS                                             @L1A 01914000
.IROUT3  DC    AL3(0)                       RESERVED               @L1A 01922500
         DC    A(&PAR1(&CTR))               DCB ADDRESS            @L1A 01931000
.UPCTRS  AIF   (&CTR1 GE &NUMBER).QUITS                                 01940000
&CTR     SETA  &CTR+2                                                   01960000
&CTR1    SETA  &CTR1+2                                                  01980000
         AGO   .RTEYE                                                   02000000
.QUITS   ANOP                                                           02020000
&CTR     SETA  1                                                        02040000
&CTR1    SETA  2                                                        02060000
.ILOOP2  AIF   ('&PAR1(&CTR)'(1,1) NE '(').UPCTR2                       02080000
&LGTH    SETA  K'&PAR1(&CTR)-2                                          02100000
&PARA    SETC  '&PAR1(&CTR)'(2,&LGTH)                                   02120000
         AIF   (NOT &MSW).PARA2                                    @L1A 02130000
&ACTR    SETA  &ACTR+4                                             @L1A 02140000
.PARA2   ST    &PARA,&ACTR.(1,0)            STORE INTO LIST        @L1C 02150000
&MFI2SW  SETB  1                                                        02160000
         AGO   .CLRSW                                                   02180000
.I2ROUT  ANOP                                                      @L1C 02190000
         AIF   (NOT &MSW).UPCTR3                                   @L1A 02200000
&ACTR    SETA  &ACTR-4                                             @L1A 02210000
.UPCTR3  AIF   (&ASUM EQ 0).UPCTR2                                 @L1A 02220000
         MVI   &ACTR.(1),&ASUM              MOVE IN OPTION BYTE         02230000
.UPCTR2  AIF   (&CTR1 GE &NUMBER).ZERO1                            @L1A 02240000
&CTR     SETA  &CTR+2                                                   02260000
&CTR1    SETA  &CTR1+2                                                  02280000
         AIF   (&MSW).INCR1                                        @L1A 02290000
&ACTR    SETA  &ACTR+4                                                  02300000
         AGO   .ILOOP2                                                  02320000
.ZERO1   ANOP                                                      @L1A 02320800
         AIF   (NOT &MSW).SVCSVC            LONG-FORM REQUESTED    @L1A 02321600
         LR    0,1                          POINT REG0 TO PLIST    @L1A 02322400
         SR    1,1                          CLEAR REGISTER 1       @L1A 02323200
         AGO   .SVCSVC                                             @L1A 02324000
.INCR1   ANOP                                                      @L1A 02325000
&ACTR    SETA  &ACTR+8                                             @L1A 02330000
         AGO   .ILOOP2                                             @L1A 02335000
.*--------------------------------------------------------------------- 02340000
.ISSSVC  AIF   ('&PAR1' EQ '').RGFLIP                              @L1C 02380000
.LOOPA   AIF   ('&PAR1(&NUMBER)' NE '').LOOPB                           02400000
&NUMBER  SETA  &NUMBER-1                                                02420000
         AIF   (&NUMBER EQ 0).RGFLIP                                    02440000
         AGO   .LOOPA                                                   02460000
.LOOPB   AIF   ('&PAR1(&CTR)' NE '').TESTCTR                            02480000
&NULLSW  SETB  1                                                        02500000
.TESTCTR AIF   (&CTR EQ &NUMBER).QUITNOW                                02520000
         AIF   ('&PAR1(&CTR1)' EQ '').NULLTWO                           02540000
&MFESW   SETB  1                                                        02560000
         AGO   .CLRSW                                                   02580000
.ERTRTRN AIF   (&CTR1 EQ &NUMBER).THRUNOW                               02660000
         AIF   (&NULLSW).NOFIRST                                        02680000
         AIF   ('&PAR1(&CTR)'(1,1) EQ '(').REGISTR                      02700000
         AIF   (NOT &OPT2SW).OPTA                                       02720000
         AIF   (NOT &MSW).MODE24                                   @L1A 02730000
&ACTR    SETA  &ACTR+4                                             @L1A 02740000
.MODE24  LA    14,&PAR1(&CTR)               PICK UP DCB ADDRESS    @L1C 02750000
         ST    14,&ACTR.(1,0)               STORE INTO LIST             02760000
.SHORTB1 AIF   (NOT &MSW).SHORTB                                   @L1A 02770000
&ACTR    SETA  &ACTR-4                                             @L1A 02780000
.SHORTB  MVI   &ACTR.(1),&ASUM              MOVE IN OPTION BYTE         02790000
         AGO   .INCRMT                                                  02800000
.OPTA    AIF   (&MSW).OPTA1                 BRANCH IF MODE=31      @L1A 02810000
         IC    14,&ACTR.(1,0)               SAVE OPTION BYTE            02820000
.OPTA1   LA    0,&PAR1(&CTR)                PICK UP DCB ADDRESS         02830000
         AIF   (NOT &MSW).MODE24B                                  @L1A 02840000
&ACTR    SETA  &ACTR+4                                             @L1A 02850000
.MODE24B ST    0,&ACTR.(1,0)                STORE INTO LIST        @L1C 02860000
.SHORTA1 AIF   (NOT &MSW).SHORTA                                   @L1A 02870000
&ACTR    SETA  &ACTR-4                                             @L1A 02880000
.SHORTA  AIF   (&MSW).OPTC                  BRANCH IF MODE=31      @L1A 02890000
         STC   14,&ACTR.(1,0)               RESTORE OPTION BYTE         02900000
.OPTC    NI    &ACTR.(1),X'F0'              CLEAR OPT 1 BITS            02910000
         AIF   (&ASUM EQ 0).INCRMT                                      02920000
         OI    &ACTR.(1),&ASUM              INSERT OPT 1 BITS           02940000
         AGO   .INCRMT                                                  02960000
.REGISTR ANOP                                                           02980000
&LGTH    SETA  K'&PAR1(&CTR)-2                                          03000000
&PARA    SETC  '&PAR1(&CTR)'(2,&LGTH)                                   03020000
         AIF   (NOT &OPT2SW).OPTB                                       03040000
         AIF   (NOT &MSW).MODE24C                                  @L1A 03050900
&ACTR    SETA  &ACTR+4                                             @L1A 03061800
.MODE24C ST    &PARA,&ACTR.(1,0)            STORE INTO LIST        @L1C 03072700
         AGO   .SHORTB1                                            @L1C 03083600
.OPTB    AIF   (&MSW).OPTB1                 BRANCH IF MODE=31      @L1A 03094500
         IC    14,&ACTR.(1,0)               SAVE OPTION BYTE            03105400
.OPTB1   AIF   (NOT &MSW).MODE24D                                  @L1A 03116300
&ACTR    SETA  &ACTR+4                                             @L1A 03127200
.MODE24D ST    &PARA,&ACTR.(1,0)            STORE INTO LIST        @L1C 03138100
         AGO   .SHORTA1                                            @L1C 03149000
.NOFIRST AIF   (NOT &OPT2SW).OPTC                                       03160000
         AGO   .SHORTB                                                  03180000
.NULLTWO AIF   (&NULLSW).INCRMT                                         03200000
         AIF   ('&PAR1(&CTR)'(1,1) EQ '(').REGSTER                      03220000
         AIF   (&MSW).CONT2                 BRANCH IF MODE=31      @L1A 03229300
         IC    14,&ACTR.(1,0)               SAVE OPTION BYTE            03238600
.CONT2   LA    0,&PAR1(&CTR)                PICK UP DCB ADDRESS         03247900
         AIF   (NOT &MSW).MODE24E                                  @L1A 03257200
&ACTR    SETA  &ACTR+4                                             @L1A 03266500
.MODE24E ST    0,&ACTR.(1,0)                STORE INTO LIST        @L1C 03275800
.SHORTC1 AIF   (NOT &MSW).SHORTC                                   @L1A 03285100
&ACTR    SETA  &ACTR-4                                             @L1A 03294400
.SHORTC  AIF   (&MSW).CONT3                 BRANCH IF MODE=31      @L1A 03303700
         STC   14,&ACTR.(1,0)               RESTORE OPTION BYTE         03313000
.CONT3   AGO   .INCRMT                                                  03322300
.REGSTER AIF   (&MSW).CONT4                 BRANCH IF MODE=31      @L1A 03331600
         IC    14,&ACTR.(1,0)               SAVE OPTION BYTE            03340900
.CONT4   ANOP                                                      @L1A 03350200
&LGTH    SETA  K'&PAR1(&CTR)-2                                          03360000
&PARA    SETC  '&PAR1(&CTR)'(2,&LGTH)                                   03380000
         AIF   (NOT &MSW).MODE24F                                  @L1A 03390500
&ACTR    SETA  &ACTR+4                                             @L1A 03401000
.MODE24F ST    &PARA,&ACTR.(1,0)            STORE INTO LIST        @L1C 03411500
         AGO   .SHORTC1                                            @L1C 03422000
.QUITNOW AIF   (&MSW).CONT5                 BRANCH IF MODE=31      @L1A 03432500
         IC    14,&ACTR.(1,0)               SAVE OPTION BYTE            03443000
.CONT5   AIF   ('&PAR1(&CTR)'(1,1) EQ '(').REGST                   @L1C 03453500
         LA    0,&PAR1(&CTR)                PICK UP DCB ADDRESS         03464000
         AIF   (NOT &MSW).MODE24G                                  @L1A 03474500
&ACTR    SETA  &ACTR+4                                             @L1A 03485000
.MODE24G ST    0,&ACTR.(1,0)                STORE INTO LIST        @L1C 03495500
.SHORTD1 AIF   (NOT &MSW).SHORTD                                   @L1A 03506000
&ACTR    SETA  &ACTR-4                                             @L1A 03516500
.SHORTD  AIF   (&MSW).CONT6                 BRANCH IF MODE=31      @L1A 03527000
         STC   14,&ACTR.(1,0)               RESTORE OPTION BYTE         03537500
.CONT6   AGO   .RGFLIP                                             @L1C 03548000
.REGST   ANOP                                                           03560000
&LGTH    SETA  K'&PAR1(&CTR)-2                                          03580000
&PARA    SETC  '&PAR1(&CTR)'(2,&LGTH)                                   03600000
         AIF   (NOT &MSW).MODE24H                                  @L1A 03612000
&ACTR    SETA  &ACTR+4                                             @L1A 03624000
.MODE24H ST    &PARA,&ACTR.(1,0)            STORE INTO LIST        @L1C 03636000
         AGO   .SHORTD1                                            @L1C 03648000
.THRUNOW AIF   (NOT &OPT2SW).OPTD                                       03660000
         NI    &ACTR.(1),X'80'              CLEAR OPTION BITS           03680000
.SHORTE  AIF   (&ASUM EQ 0).CONTA                                       03700000
         OI    &ACTR.(1),&ASUM              INSERT OPTION BITS          03720000
.CONTA   AIF   (&NULLSW).RGFLIP                                         03740000
         AGO   .QUITNOW                                                 03760000
.OPTD    NI    &ACTR.(1),X'F0'              CLEAR OPTION 1 BITS    @L1C 03780000
         AGO   .SHORTE                                                  03800000
.INCRMT  ANOP                                                           03820000
&CTR     SETA  &CTR+2                                                   03840000
&CTR1    SETA  &CTR1+2                                                  03860000
         AIF   (&MSW).MODE24J                                      @L1A 03870000
&ACTR    SETA  &ACTR+4                                                  03880000
         AGO   .MODE24K                                            @L1A 03884000
.MODE24J ANOP                                                      @L1A 03888000
&ACTR    SETA  &ACTR+8                                             @L1A 03892000
.MODE24K ANOP                                                      @L1A 03896000
&OPT2SW  SETB  0                                                        03900000
&NULLSW  SETB  0                                                        03920000
         AGO   .LOOPB                                                   03940000
.RGFLIP  AIF   (NOT &MSW).SVCSVC            MODE=24....BRANCH      @L1A 03942500
         LR    0,1                                                 @L1A 03945000
         SR    1,1                                                 @L1A 03947500
.*--------------------------------------------------------------------- 03950000
.SVCSVC  AIF   (&IHBRDJ).FINI                                   SA51997 03960000
         AIF   ('&TYPE' EQ 'J').SVC22   IF TYPE=J                       03980000
         SVC   19                           ISSUE OPEN SVC              04000000
         MEXIT                                                          04020000
.SVC22   SVC   22                           ISSUE OPENJ SVC             04040000
         MEXIT                                                          04060000
.ERROR1  IHBERMAC 49,,&PAR1(&CTR1)          INVALID OPTION OPERAND      04070000
         MEXIT                                                          04080000
.ERROR3  IHBERMAC 35,,&MF                  INVALID MF OPERAND SPECIFIED 04090000
         MEXIT                                                          04100000
.ERROR5  IHBERMAC 6                         DCB MISSING                 04110000
         MEXIT                                                          04120000
.ERROR6  IHBERMAC 69                        INVALID REG NOTATION W/MF=L 04122600
         MEXIT                                                     @L1A 04125200
.ERROR7  IGGERMAC 200                    MODE=31 AND TYPE=J COMBINATION 04127800
.*                                       INVALID                   @L1A 04130400
         MEXIT                                                          04133000
.ERROR8  IHBERMAC 63,,&TYPE              INVALID TYPE OPERAND     M0626 04134700
         MEXIT                                                     @L1A 04136400
.ERROR9  IGGERMAC 201                   INVALID MODE OPERAND       @L1A 04138100
.*                                                           D 2   @01D 04139000
.FINI    MEND                                                           04140000
**/  OPEN: MACRO KEYS(DCB_NAME,DCB_ADDR,MODE,TYPE_J,RETCODE,   /*@L2A*/ 04190000
*             MF);                                             /*@L2A*/ 04240000
* ANS('? '||MACLABEL|| ' OPENP '||MACKEYS||';') RESCAN SKIP;   /*@L2A*/ 04290000
*  %END OPEN;                                                  /*@L2A*/ 04340000
