         MACRO                                                          03000003
&NAME    OSI   &I                       OR TO POCKET STATS              06000003
         LCLA  &V                                                       06500000
&V       SETA  &I                                                       07000000
         AIF   (&V LE 255).OS0                                          07500000
         MNOTE 8,'***  IHB421 IMMEDIATE VALUE EXCEEDS ALLOWED MAXIMUM'  08000000
.OS0     ANOP                                                           08500000
&NAME    DC    0H'0',X'AF',AL1(&I)                                      09000003
         MEND                                                           12000003
