*********************************************************************** 00050000
*  MACCOMP  MVS/SYSTEM EXTENSIONS-SC1CR/PZD16                         * 00100000
*  MACSTAT  MVS/SYSTEM EXTENSIONS-77001/G50FPYB                       * 00150000
*********************************************************************** 00200000
*  NAME:  PGFIXA                                                      * 00250000
*                                                     11/03/93 - jpv  * 00275000
*                                                                     * 00300000
*   COPYRIGHT =                                                       * 00350000
*       5695-047                                                      * 00400000
*       CONTAINS "RESTRICTED MATERIALS OF IBM"                        * 00450000
*       (C) COPYRIGHT IBM CORP. 1977, 1990                            * 00500000
*       LICENSED MATERIALS - PROPERTY OF IBM.                         * 00550000
*                                                                     * 00600000
*   STATUS = HBB4420                                                  * 00608300
*                                                                     * 00616600
*         CHANGE-ACTIVITY =                                           * 00625000
*           $L1=PROD310,HBB3310,860219,PD48: Base Support             * 00650000
*           $01=OY37322 ,HBB3310,901110,PD00A8: Use literals          * 00662500
*                                                                     * 00675000
*********************************************************************** 00700000
         MACRO                                                          00750000
&NAME    PGFIXA &TYPE=R,&SAVE=YES                                       00800000
*                    MACDATE  76300                                     00850000
         SLR   0,0                    CLEAR OPTIONS REGISTER            00900000
         L     15,16(,0)              ADDRESS OF CVT               @01C 00950000
         L     15,356(,15)            ADDRESS OF PVT               @01C 01000000
         AIF   ('&TYPE' NE 'L').RFORM                                   01050000
         L     15,PVTPPSIY-PVT(,15)   GET PAGE FIX ENTRY POINT          01100000
         AGO   .CLOSE                                                   01150000
.RFORM   AIF   ('&SAVE' NE 'NO').SAVEYES                                01200000
         L     15,PVTPPSIZ-PVT(,15)   GET PAGE FIX ENTRY POINT          01250000
         AGO   .CLOSE                                                   01300000
.SAVEYES L     15,PVTPPSIX-PVT(,15)   GET PAGE FIX ENTRY POINT          01350000
.CLOSE   BALR  14,15                  ENTER PAGE FIX                    01400000
         MEND                                                           01450000
