*  %     /*                                                             00050000
         MACRO                                                          00100000
&NAME    PGFIX &FORM,&LA=,&A=,&EA=,&ECB=,&LONG=,&RELEASE=,&RSAOPT=,    X00150000
               &SUSPEND=N,&RELATED=                                     00200000
&NAME IHBPSINR &FORM,TYPE=FIX,LA=&LA,A=&A,EA=&EA,ECB=&ECB,             X00250000
               LONG=&LONG,RELEASE=&RELEASE,RSAOPT=&RSAOPT,             X00300000
               SUSPEND=&SUSPEND                                         00350000
         MEND                                                           00400000
*        */                                                             00450000
*/*******************************************************************/  00453100
*/*                                                   11/03/93      */  00467000
*/*                                                                 */  00481000
*/*  COPYRIGHT =                                                    */  00482000
*/*      5685-001                                                   */  00483000
*/*      CONTAINS "RESTRICTED MATERIALS OF IBM"                     */  00484000
*/*      (C) COPYRIGHT IBM CORP. 1981, 1988                         */  00485000
*/*      LICENSED MATERIALS - PROPERTY OF IBM.                      */  00486000
*/*                                                                 */  00487200
*/*  STATUS = HBB3310                                               */  00487900
*/*                                                                 */  00488600
*/*                                                                 */  00489300
*/*      CHANGE-ACTIVITY =                                          */  00490300
*/*         $L1=PROD310,HBB3310,860219,PD48: Base Support           */  00493400
*/*******************************************************************/  00496500
* PGFIX:                                                                00500000
*   MACRO                                                               00550000
*    KEYS(A,                       /* VIRTUAL ADDR OF PAGE TO BE FIXED  00600000
*                                     (R FORM ONLY)                  */ 00650000
*         LA,                      /* ADDR OF FIRST ENTRY OF A VIRTUAL  00700000
*                                     SUBAREA LIST(L FORM ONLY       */ 00750000
*         EA,                      /* END ADDR+1 OF A VIRTUAL AREA TO   00800000
*                                     BE FIXED                       */ 00850000
*         ECB,                     /* ADDR OF EVENT CONTROL BLOCK    */ 00900000
*         LONG,                    /* LONG(N)-AREA OR PAGE TO BE FIXED  00950000
*                                          FOR A SHORT TIME             01000000
*                                     LONG(Y)-AREA OR PAGE TO BE FIXED  01050000
*                                          FOR A LONG TIME (DEFAULT) */ 01100000
*         RELEASE,                 /* RELEASE(Y)-CONTENTS OF ENTIRE     01150000
*                                          VIRTUAL PAGE DISCARDED       01200000
*                                     RELEASE(N)-CONTENTS OF PAGE       01250000
*                                          REMAIN INTACT (DEFAULT)   */ 01300000
*         RSAOPT,                  /* ALLOWED WITH L FORM ONLY          01350000
*                                     RSAOPT(Y)-REAL ADDR ORIGIN OF     01400000
*                                          SPECIFIED VIR. ADDR PLACED   01450000
*                                       IN SECOND HALF OF PARMLIST      01500000
*                                     RSAOPT(N)-NO REAL ADDR RETURNED*/ 01550000
*         RELATED,                 /* COMMENT FIELD TO STATE WHERE      01600000
*                                     PGFREE OCCURS                  */ 01650000
*         RTCD);                   /* RETURN CODE FROM SVC           */ 01700000
*         ANS('?'||MACLABEL||'PGFIXP '||MACLIST||MACKEYS||';');         01750000
*%  END PGFIX;                                                          01800000
