*   %    /*                                                             00050000
*********************************************************************** 00100000
*  NAME:  PGFREE                                                      * 00150000
*                                                                     * 00200000
*                                                     11/03/93        * 00250000
*                                                                     * 00500000
*   COPYRIGHT =                                                       * 00511100
*       5685-001                                                      * 00522200
*       CONTAINS "RESTRICTED MATERIALS OF IBM"                        * 00533300
*       (C) COPYRIGHT IBM CORP. 1981, 1988                            * 00544400
*       LICENSED MATERIALS - PROPERTY OF IBM.                         * 00555500
*                                                                     * 00566600
*   STATUS = HBB3310                                                  * 00577700
*                                                                     * 00588800
*  CHANGE-ACTIVITY =                                                  * 00600000
*  $L1= EXTREAL, JBB1326, 800301, PD21: EXTENDED REAL ENHANCEMENTS    * 00650000
*  $L2=PROD310,HBB3310,860219,PD48: Base Support                      * 00675000
*********************************************************************** 00700000
         MACRO                                                          00750000
&NAME    PGFREE &FORM,&A=,&EA=,&LA=,&ECB=,&RELEASE=,&ANYWHER=,&RSAOPT=,X00800000
               &RELATED=                                                00850000
&NAME IHBPSINR &FORM,TYPE=FREE,LA=&LA,A=&A,EA=&EA,ECB=&ECB,            X00900000
               RELEASE=&RELEASE,ANYWHER=&ANYWHER,RSAOPT=&RSAOPT         00950000
         MEND                                                           01000000
*        */                                                             01050000
*    PGFREE: MACRO                                                      01100000
*    KEYS(A,                       /* VIRTUAL ADDR OF PAGE TO BE FIXED  01150000
*                                     (R FORM ONLY)                  */ 01200000
*         LA,                      /* ADDR OF FIRST ENTRY OF A VIRTUAL  01250000
*                                     SUBAREA LIST(L FORM ONLY       */ 01300000
*         EA,                      /* END ADDR+1 OF A VIRTUAL AREA TO   01350000
*                                     BE FIXED                       */ 01400000
*         ECB,                     /* ADDR OF EVENT CONTROL BLOCK    */ 01450000
*         RELEASE,                 /* RELEASE(Y)-CONTENTS OF ENTIRE     01500000
*                                          VIRTUAL PAGE DISCARDED       01550000
*                                     RELEASE(N)-CONTENTS OF PAGE       01600000
*                                          REMAIN INTACT (DEFAULT)   */ 01650000
*         ANYWHER,                 /*ANYWHER(Y)-NO ATTEMPT SHOULD BE    01700000
                                     MADE TO BACK THE PAGE BELOW 16M    01750000
                                     DURING NEXT PAGE-IN                01800000
                                     ANYWHER(N)- ATTEMPT SHOULD BE MADE 01850000
                                     TO BACK PAGE BELOW 16M DURING NEXT 01900000
                                      PAGE-IN              @L1A*/       01950000
*         RSAOPT,                  /* ALLOWED WITH L FORM ONLY          02000000
*                                     RSAOPT(Y)-REAL ADDR ORIGIN OF     02050000
*                                          SPECIFIED VIR. ADDR PLACED   02100000
*                                       IN SECOND HALF OF PARMLIST      02150000
*                                     RSAOPT(N)-NO REAL ADDR RETURNED*/ 02200000
*         RELATED,                 /* COMMENT FOR STATING WHERE PGFIX   02250000
*                                     WAS FOR THIS PGFREE            */ 02300000
*         RTCD);                   /* RETURN CODE FROM SVC           */ 02350000
*    ANS('?'||MACLABEL||'PGFREEP '||MACLIST||MACKEYS||';');             02400000
*%END;                                                                  02450000
