*  %     /*                                                             00050000
         MACRO                                                          00100000
&NAME    PGLOAD &FORM,&LA=,&A=,&ECB=,&EA=,&RELEASE=                     00150000
&NAME IHBPSINR &FORM,TYPE=LOAD,LA=&LA,A=&A,ECB=&ECB,EA=&EA,            X00200000
               RELEASE=&RELEASE                                         00250000
         MEND                                                           00300000
*        */                                                             00350000
*/********************************************************************/ 00352900
*/*                                                   11/03/93       */ 00365900
*/*                                                                  */ 00379000
*/*  COPYRIGHT =                                                     */ 00379900
*/*      5685-001                                                    */ 00380800
*/*      CONTAINS "RESTRICTED MATERIALS OF IBM"                      */ 00381700
*/*      (C) COPYRIGHT IBM CORP. 1981, 1988                          */ 00382600
*/*      LICENSED MATERIALS - PROPERTY OF IBM.                       */ 00383500
*/*                                                                  */ 00384800
*/*  STATUS = HBB3310                                                */ 00385700
*/*                                                                  */ 00386600
*/*      CHANGE-ACTIVITY =                                           */ 00387700
*/*         $L1=PROD310,HBB3310,860219,PD48: Base Support            */ 00390600
*/********************************************************************/ 00393500
*                                                                       00396400
*   PGLOAD: MACRO                                                       00400000
*    KEYS(A,                       /* VIRTUAL ADDR OF PAGE TO BE FIXED  00450000
*                                     (R FORM ONLY)                  */ 00500000
*         LA,                      /* ADDR OF FIRST ENTRY OF A VIRTUAL  00550000
*                                     SUBAREA LIST(L FORM ONLY       */ 00600000
*         EA,                      /* END ADDR+1 OF A VIRTUAL AREA TO   00650000
*                                     BE FIXED                       */ 00700000
*         ECB,                     /* ADDR OF EVENT CONTROL BLOCK    */ 00750000
*         RELEASE,                 /* RELEASE(Y)-CONTENTS OF ENTIRE     00800000
*                                          VIRTUAL PAGE DISCARDED       00850000
*                                     RELEASE(N)-CONTENTS OF PAGE       00900000
*                                          REMAIN INTACT (DEFAULT)   */ 00950000
*         RTCD);                   /* RETURN CODE FROM SVC           */ 01000000
*    ANS('?'||MACLABEL||'PGLOADP '||MACLIST||MACKEYS||';');             01050000
*%END;                                                                  01100000
