*  %     /*                                                             00050000
         MACRO                                                          00100000
&NAME    PGOUT &FORM,&LA=,&A=,&EA=,&ECB=,&KEEPREL=                      00150000
&NAME IHBPSINR &FORM,TYPE=OUT,LA=&LA,A=&A,EA=&EA,                      X00200000
               KEEPREL=&KEEPREL                                         00250000
         MEND                                                           00300000
**/                                                                     00350000
*/********************************************************************/ 00353100
*/*                                                   11/03/93       */ 00367000
*/*                                                                  */ 00381000
*/*  COPYRIGHT =                                                     */ 00382000
*/*      5685-001                                                    */ 00383000
*/*      CONTAINS "RESTRICTED MATERIALS OF IBM"                      */ 00384000
*/*      (C) COPYRIGHT IBM CORP. 1981, 1988                          */ 00385000
*/*      LICENSED MATERIALS - PROPERTY OF IBM.                       */ 00386000
*/*                                                                  */ 00387200
*/*  STATUS = HBB3310                                                */ 00388200
*/*                                                                  */ 00389200
*/*      CHANGE-ACTIVITY =                                           */ 00390300
*/*         $L1=PROD310,HBB3310,860219,PD48: Base Support            */ 00393400
*/********************************************************************/ 00396500
*   PGOUT: MACRO                                                        00400000
*      KEYS(A,                     /* VIRTUAL ADDR OF PAGE TO BE PAGED  00450000
*                                     OUT- R FORM ONLY               */ 00500000
*         LA,                      /* ADDR OF FIRST ENTRY OF A VIRTUAL  00550000
*                                     SUBAREA LIST(L FORM ONLY       */ 00600000
*         EA,                      /* END ADDR+1 OF A VIRTUAL AREA TO   00650000
*                                     BE FIXED                       */ 00700000
*         KEEPREAL,                /* KEEPREAL(Y)-VIRTUAL PAGES NOT     00750000
*                                     TO BE INVALIDATED                 00800000
*                                     KEEPREAL(N)-VIR PAGE WILL BE      00850000
*                                     MARKED INVALID                 */ 00900000
*         RTCD);                   /* RETURN CODE FROM SVC           */ 00950000
*      ANS('?'||MACLABEL||'PGOUTP '||MACLIST||MACKEYS||';');            01000000
*%END;                                                                  01050000
