.********************************************************************   00003100
.*                                                    11/03/93      *   00017000
.*                                                                  *   00031000
.*   COPYRIGHT =                                                    *   00032000
.*       5685-001                                                   *   00033000
.*       CONTAINS "RESTRICTED MATERIALS OF IBM"                     *   00034000
.*       (C) COPYRIGHT IBM CORP. 1981, 1988                         *   00035000
.*       LICENSED MATERIALS - PROPERTY OF IBM.                      *   00036000
.*                                                                  *   00037200
.*   STATUS = HBB3310                                               *   00038200
.*                                                                  *   00039200
.*       CHANGE-ACTIVITY =                                          *   00040300
.*          $L1=PROD310,HBB3310,860219,PD48: Base Support           *   00043400
.********************************************************************   00046500
         MACRO                                                          00050000
&NAME    PGRLSE    &MF=,&LA=,&HA=                                       00100000
         LCLB  &B1,&B11,&B2,&B22,&LISTADR                               00150000
         LCLA  &A                                                YM1995 00200000
         LCLC  &LISTR                                            YM1995 00250000
.*                                                                      00300000
         AIF   (T'&MF EQ 'O').IMM      DETERMINE FORM                   00350000
         AIF   ('&MF' EQ 'L').LIST                                      00400000
         AIF   ('&MF(1)' EQ 'E').EXECU                                  00450000
         IHBERMAC 1001,MF,&MF                                           00500000
         MEXIT                                                          00550000
.*                                                                      00600000
.**** EXECUTE FORM ****                                                 00650000
.*                                                                      00700000
.EXECU   AIF   (T'&MF(2) EQ 'O' OR '&MF(2)' EQ '').EE                   00750000
         AIF   ('&MF(2)'(1,1) EQ '(').E1                                00800000
&LISTADR SETB  1                                                        00850000
         AGO   .E1                                                      00900000
.EE      ANOP                                                           00950000
         IHBERMAC 1017,'LISTADR'                                        01000000
         MEXIT                                                          01050000
.E1      ANOP                                                           01100000
&B11     SETB  (T'&LA NE 'O' AND '&LA' NE '') IS LOW ADR TO BE UPDATED? 01150000
         AIF   (NOT &B11).E1A                                           01200000
&B1      SETB  ('&LA'(1,1) NE '(')     IS IT NOT IN A REGISTER?         01250000
.E1A     ANOP                                                           01300000
&B22     SETB  (T'&HA NE 'O' AND '&HA' NE '') IS HIGH ADR TO BE UPDATED 01350000
         AIF   (NOT &B22).E1B                                           01400000
&B2      SETB  ('&HA'(1,1) NE '(')     IS IT NOT IN A REGISTER?         01450000
.*                                                                      01500000
         AIF   (&B1 AND &B2 AND &B11 AND &B22).E17                      01550000
.*                                                                      01600000
.E1B     ANOP                                                           01650000
         AIF   ((&B11 AND &B1) OR (&B22 AND &B2)).E2                    01700000
.** OTHERWISE UPDATED PARAMETERS ARE IN REGS IF THEY EXIST **           01750000
         AIF   ('&NAME' EQ '').E3                                       01800000
&NAME    DS    0H                                                       01850000
.E3      AIF   (NOT &LISTADR).E333                                      01900000
         LA    15,&MF(2) LOAD PARAMETER LIST ADDRESS                    01950000
&LISTR   SETC  '15'                                              YM1995 02000000
         AGO   .E33                                                     02050000
.E333    ANOP                                                           02100000
&A       SETA   K'&MF-6                                          YM1995 02150000
&LISTR   SETC  '&MF'(5,&A)                                       YM1995 02200000
.E33     AIF   (&B11).E4                                                02250000
         L     0,0(&LISTR,0) LOAD LOW ADDRESS FROM LIST          YM1995 02300000
         AGO   .E6                                                      02350000
.E4      ST    &LA(1),0(&LISTR,0) UPDATE PARAMETER LIST          YM1995 02400000
         AIF   (T'&LA(1) NE 'N').E5                                     02450000
         AIF   ('&LA(1)' EQ '0').E6                                     02500000
.E5      LR    0,&LA(1) LOAD LOW ADDRESS                                02550000
.E6      AIF   (&B22).E7                                                02600000
         L     1,4(&LISTR,0) LOAD HIGH ADDRESS FROM LIST         YM1995 02650000
         AGO   .RELSVC                                                  02700000
.E7      ST    &HA(1),4(&LISTR,0) UPDATE PARAMETER LIST          YM1995 02750000
         AIF   (T'&HA(1) NE 'N').E8                                     02800000
         AIF   ('&HA(1)' EQ '1').RELSVC                                 02850000
.E8      LR    1,&HA(1) LOAD HIGH ADDRESS                               02900000
         AGO   .RELSVC                                                  02950000
.*                                                                      03000000
.** ONE AND ONLY ONE OF THE PARAMETERS TO BE UPDATED IS NOT IN A REG ** 03050000
.*                                                                      03100000
.E2      CNOP  0,4                                                      03150000
         AIF   ('&NAME' EQ '').E9                                       03200000
&NAME    DS    0H                                                       03250000
.E9      AIF   (NOT &LISTADR).E999                                      03300000
         LA    15,&MF(2) LOAD PARAMETER LIST ADDRESS                    03350000
&LISTR   SETC  '15'                                              YM1995 03400000
         AGO   .E99                                                     03450000
.E999    ANOP                                                           03500000
&A       SETA   K'&MF-6                                          YM1995 03550000
&LISTR   SETC  '&MF'(5,&A)                                       YM1995 03600000
.E99     B     *+8 BRANCH AROUND ADCON                                  03650000
         AIF   (&B1 AND &B11).E10                                       03700000
         DC    A(&HA) HIGH ADDRESS                                      03750000
         MVC   4(4,&LISTR),*-4 UPDATE HIGH ADDR IN PARAMETER LISTYM1995 03800000
         AIF   (&B11).E11                                               03850000
         LM    0,1,0(&LISTR) LOAD ADDRESSES                      YM1995 03900000
         AGO   .RELSVC                                                  03950000
.E11     ST    &LA(1),0(&LISTR,0) UPDATE LOW ADDR IN PARAM LIST  YM1995 04000000
         AIF   (T'&LA(1) NE 'N').E12                                    04050000
         AIF   ('&LA(1)' EQ '0').E13                                    04100000
.E12     LM    0,1,0(&LISTR) LOAD ADDRESSES                      YM1995 04150000
         AGO   .RELSVC                                                  04200000
.E13     L     1,*-14 LOAD HIGH ADDRESS                                 04250000
         AGO   .RELSVC                                                  04300000
.E10     DC    A(&LA) LOW ADDRESS                                       04350000
         MVC   0(4,&LISTR),*-4 UPDATE LOW ADDR IN PARAMETER LIST YM1995 04400000
         AIF   (&B22).E14                                               04450000
         LM    0,1,0(&LISTR) LOAD ADDRESSES                      YM1995 04500000
         AGO   .RELSVC                                                  04550000
.E14     ST    &HA(1),4(&LISTR,0) UPDATE HIGH ADDR IN PARAM LIST YM1995 04600000
         AIF   (T'&HA(1) NE 'N').E15                                    04650000
         AIF   ('&HA(1)' EQ '1').E16                                    04700000
.E15     LM    0,1,0(&LISTR) LOAD ADDRESSES                      YM1995 04750000
         AGO   .RELSVC                                                  04800000
.E16     L     0,*-14 LOAD LOW ADDRESS                                  04850000
         AGO   .RELSVC                                                  04900000
.*                                                                      04950000
.** BOTH PARAMETERS ARE TO BE MODIFIED, NEITHER IS IN A REGISTER **     05000000
.*                                                                      05050000
.E17     CNOP  0,4                                                      05100000
         AIF   ('&NAME' EQ '').E18                                      05150000
&NAME    DS    0H                                                       05200000
.E18     AIF   (NOT &LISTADR).E1888                                     05250000
         LA    15,&MF(2) LOAD PARAMETER LIST ADDRESS                    05300000
&LISTR   SETC  '15'                                              YM1995 05350000
         AGO   .E188                                                    05400000
.E1888   ANOP                                                           05450000
&A       SETA  K'&MF-6                                           YM1995 05500000
&LISTR   SETC  '&MF'(5,&A)                                       YM1995 05550000
.E188    B     *+12 BRANCH AROUND ADCONS                                05600000
         DC    A(&LA) LOW ADDRESS                                       05650000
         DC    A(&HA) HIGH ADDRESS                                      05700000
         MVC   0(8,&LISTR),*-8 UPDATE PARAMETER LIST             YM1995 05750000
         LM    0,1,0(&LISTR)                                     YM1995 05800000
         AGO   .RELSVC                                                  05850000
.*                                                                      05900000
.**** LIST FORM ****                                                    05950000
.*                                                                      06000000
.LIST    AIF   (T'&LA EQ 'O').L0                                        06050000
         AIF   ('&LA'(1,1) NE '(').L0                                   06100000
         IHBERMAC 69                                                    06150000
         MEXIT                                                          06200000
.L0      AIF   (T'&HA EQ 'O').L1                                        06250000
         AIF   ('&HA'(1,1) NE '(').L1                                   06300000
         IHBERMAC 69                                                    06350000
         MEXIT                                                          06400000
.L1      ANOP                                                    YM0449 06450000
         AIF   (T'&LA NE 'O' AND '&LA' NE '').L3                        06500000
&NAME    DC    A(0) LOW ADDRESS                                  YM0449 06550000
         AGO   .L4                                                      06600000
.L3      ANOP                                                    YM0449 06650000
&NAME    DC    A(&LA) LOW ADDRESS                                YM0449 06700000
.L4      AIF   (T'&HA NE 'O' AND '&HA' NE '').L5                        06750000
         DC    A(0) HIGH ADDRESS                                 YM0449 06800000
         AGO   .L6                                                      06850000
.L5      DC    A(&HA) HIGH ADDRESS                                      06900000
.L6      MEXIT                                                          06950000
.*                                                                      07000000
.**** IMMEDIATE FORM ****                                               07050000
.*                                                                      07100000
.IMM     AIF   (T'&LA  NE 'O' AND '&LA' NE '').I0                       07150000
         IHBERMAC 1017,LA                                               07200000
         MEXIT                                                          07250000
.I0      AIF   (T'&HA NE 'O' AND '&HA' NE '').I1                        07300000
         IHBERMAC 1017,HA                                               07350000
         MEXIT                                                          07400000
.I1      ANOP                                                           07450000
&B1      SETB  ('&LA'(1,1) NE '(')                                      07500000
&B2      SETB  ('&HA'(1,1) NE '(')                                      07550000
         AIF   (NOT(&B1 OR &B2)).I2                                     07600000
         CNOP  0,4                                                      07650000
.I2      AIF   ('&NAME' EQ '').I3                                       07700000
&NAME    DS    0H                                                       07750000
.I3      AIF   (NOT(&B1 OR &B2)).I8                                     07800000
         B     *+4+(&B1*4)+(&B2*4)                                      07850000
         AIF   (NOT &B1).I4                                             07900000
         DC    A(&LA) LOW ADDRESS                                       07950000
.I4      AIF   (NOT &B2).I5                                             08000000
         DC    A(&HA) HIGH ADDRESS                                      08050000
.I5      AIF   (NOT(&B1 AND &B2)).I6                                    08100000
         LM    0,1,*-8 LOAD LOW AND HIGH ADDRESS                        08150000
         AGO   .RELSVC                                                  08200000
.I6      AIF   (NOT &B1).I7                                             08250000
         AIF   (T'&HA(1) NE 'N').I9                                     08300000
         AIF   ('&HA(1)' EQ '1').I10                                    08350000
.I9      LR    1,&HA(1) LOAD HIGH ADDRESS                               08400000
         L     0,*-6 LOAD LOW ADDRESS                                   08450000
         AGO   .RELSVC                                                  08500000
.I10     L     0,*-4 LOAD LOW ADDRESS                                   08550000
         AGO   .RELSVC                                                  08600000
.I7      AIF   (T'&LA(1) NE 'N').I11                                    08650000
         AIF   ('&LA(1)' EQ '0').I12                                    08700000
.I11     LR    0,&LA(1) LOAD LOW ADDRESS                                08750000
         L     1,*-6 LOAD HIGH ADDRESS                                  08800000
         AGO   .RELSVC                                                  08850000
.I12     L     1,*-4 LOAD HIGH ADDRESS                                  08900000
         AGO   .RELSVC                                                  08950000
.I8      AIF   (T'&LA(1) NE 'N').I13                                    09000000
         AIF   ('&LA(1)' EQ '0').I14                                    09050000
.I13     LR    0,&LA(1) LOAD LOW ADDRESS                                09100000
.I14     AIF   (T'&HA(1) NE 'N').I15                                    09150000
         AIF   ('&HA(1)' EQ '1').RELSVC                                 09200000
.I15     LR    1,&HA(1) LOAD HIGH ADDRESS                               09250000
.RELSVC  SVC   112 ISSUE SVC                                            09300000
         MEND                                                           09350000
