*%/*                                                               @L2A 00025000
         MACRO                                                          00050000
&NAME    POINT &DCB,&LOC,&RPL=,&TYPE=REL,&MF=                      @H1C 00072200
.* $MAC(POINT) :                                                        00094400
.*PROPRIETARY V3 STATEMENT                                              00105900
.*LICENSED MATERIALS - PROPERTY OF IBM                                  00117400
.*"RESTRICTED MATERIALS OF IBM"                                         00128900
.*5695-DF1                                                              00140400
.*(C) COPYRIGHT 1984  IBM CORP.                                         00151900
.*END PROPRIETARY V3 STATEMENT                                          00169400
.*                                                                      00186900
.* STATUS = MVS/XA  DFP RELEASE 1.2                                @H1A 00205400
.*                                                                      00210900
.* CHANGE ACTIVITY =                                                    00216400
.*                                                                      00221900
.*$H1=3480,JDP1111,,STLPKH:  3480 SUPPORT                               00227600
.*$01=OY43395,HDP3330,,SJPLGEC: CORRECT EXPANSION FOR BLKID IN     @01A 00228800
.*                              REGISTER FORMAT FOR TYPE=ABS       @01A 00230000
.*$L1=31BIT,JDZ1110,,SJPLRK:  INVOCABLE IN 31-BIT MODE             @L1A 00230600
.*$02=OY65478,JDZ1110,930708,SJPLPS: FIX EXPANSION FOR BLKID REG0  @02A 00230900
.*$L2=PLX  ,JDZ1110,930930,SJPLMET: PL/X SUPPORT                   @L2A 00231100
.*                                                                      00231300
         LCLA  &LEN                                                @H1A 00235000
         LCLC  &REG                                                @H1A 00242400
         LCLB  &NOGO                                                    00250000
         AIF   ('&RPL' NE '').JES                                       00300000
         AIF   ('&MF' EQ 'L').SKIP     DCB & BLK NO NEED FOR LIST  @H1A 00325000
         AIF   ('&DCB' EQ '').ERR1                                      00350000
.R1      AIF   ('&LOC' EQ '').ERR2                                      00400000
         AIF   (&NOGO EQ 1).TERM                                        00450000
.SKIP    AIF   ('&TYPE' NE 'REL').NOTREL                           @H1A 00460000
         AIF   ('&MF' EQ '').RELOK        MF PARAMETER INVALID     @H1A 00470000
         IGGERMAC 52                      MF PARM IGNORED FOR REL  @H1A 00480000
.RELOK   ANOP                                                      @H1A 00490000
&NAME    IHBINNRA &DCB,&LOC                                             00500000
         SLR   15,15                    CLEAR REGISTER             @L1A 00533300
         ICM   15,7,85(1)               LOAD POINT RTN ADDR        @L1C 00566600
         BAL   14,4(15,0)               LINK TO POINT ROUTINE           00600000
         MEXIT                                                          00650000
.NOTREL  AIF   ('&TYPE' NE 'ABS').ERR3                             @H1A 00653800
         AIF   ('&MF' EQ 'S').ABSST     STANDARD FORM              @H1A 00656000
         AIF   ('&MF' NE '').ABSEX      MF DEFAULT TO STANDARD     @H1A 00658200
.ABSST   CNOP  0,4                      STANDARD FORM              @H1A 00660400
&NAME    BAL   15,*+12                                             @H1A 00662600
         DC    AL4(0)                   BLOCK ID                   @H1A 00665200
         DC    AL1(128)                 SET HIGH ORDER BIT ON      @H1A 00669000
         DC    AL3(0)                                              @H1A 00672800
         AIF   ('&LOC'(1,1) EQ '(').STREG                          @H1A 00674900
         MVC   0(4,15),&LOC             MOVE BLK ID IN PARM LIST   @H1A 00677000
         AGO   .STON                                               @H1A 00679100
.STREG   AIF   ('&LOC'(1,3) NE '(0)').MVCREG                       @02C 00679900
         ST    &LOC(1),0(15)                                       @02A 00680700
         AGO   .STON                                               @02A 00681500
.MVCREG  MVC   0(4,15),0(&LOC(1))       STORE BLK ID IN PARM LIST  @02A 00682300
.STON    IHBINNRA &DCB                  PUT DCB ADDRESS IN REG 1   @H1A 00683300
         LR    0,15                                                     00685400
         LA    15,32                    ROUTER CODE                @H1A 00688000
         SVC   109                      SUPERVISOR CALL            @H1A 00691800
         MEXIT                                                     @H1A 00695600
.ABSEX   AIF   ('&MF' EQ 'L').ABSLS     LIST FORM                  @H1A 00695700
         AIF   ('&MF(1)' NE 'E').EXERR  NOT EXECUTION FORM         @H1A 00695800
         AIF   (T'&MF(2) EQ 'O').EXERR  NO LIST ADDRESS GIVEN      @H1A 00695900
         AIF   ('&MF(2)'(1,1) EQ '(').EXREG  PARM ADRS IN REGISTER @H1A 00696000
&NAME    LA    15,&MF(2)                 LOAD PARM LIST ADDRESS    @H1A 00696100
         AGO   .EXON                                               @H1A 00696200
.EXREG   ANOP                                                      @H1A 00696300
&LEN     SETA  K'&MF(2)-2                                          @H1A 00696400
&REG     SETC  '&MF(2)'(2,&LEN)                                    @H1A 00696500
&NAME    LR    15,&REG                   LOAD PARM LIST ADDRESS    @H1A 00696600
.EXON    ANOP                                                      @H1A 00696700
         AIF   ('&LOC'(1,1) EQ '(').EXLR   LOC PARM IN REGISTER    @H1A 00696800
         MVC   0(4,15),&LOC                                        @H1A 00696900
         AGO   .EXLON                                              @H1A 00697000
.EXLR    AIF   ('&LOC'(1,3) NE '(0)').EXMVC                        @02C 00697100
         ST    &LOC(1),0(15)                                       @02A 00697200
         AGO   .EXLON                                              @02A 00697300
.EXMVC   MVC   0(4,15),0(&LOC(1))                                  @02A 00697400
.EXLON   ANOP                                                      @H1A 00697500
         XC    4(4,15),4(15)            ZERO OUT 2ND WORD IN PARM  @H1A 00697600
         OI    4(15),X'80'              SET HIGH ORDER BIT         @H1A 00697700
         IHBINNRA &DCB                  PICK DCB ADDRESS IN REG 1  @H1A 00697800
         LR    0,15                     PARM LIST ADDR INTO REG 0  @H1A 00697900
         LA    15,32                    ROUTE CODE                 @H1A 00698000
         SVC   109                      GO TO NOTE/POINT SVC       @H1A 00698100
         MEXIT                                                     @H1A 00698200
.EXERR   IGGERMAC 112                   INVALID PARAMETER FOR MF   @H1A 00698300
         MEXIT                                                     @H1A 00698400
.ABSLS   AIF    ('&LOC' EQ '').ABLOC    LIST FORM                  @H1A 00698500
         AIF    ('&LOC'(1,1) EQ '(').ABLERR   REG FORM NOT FOR LIST@H1A 00698600
&NAME    DC     A(&LOC)                 BLOCK ID SUPPLIED          @H1A 00698700
         AGO    .ABLON                                             @H1A 00698800
.ABLOC   ANOP                                                      @H1A 00698900
&NAME    DC     A(0)                    SPACE FOR BLOCK ID         @H1A 00699000
.ABLON   DC     AL1(128)                SET HIGH ORDER BIT FOR ABS @H1A 00699100
         DC     AL3(0)                                             @H1A 00699200
         MEXIT                                                     @H1A 00699300
.ABLERR  IHBERMAC 69                    INVALID REG FORM FOR MF=L  @H1A 00699400
         MEXIT                                                     @H1A 00699500
.ERR1    IHBERMAC 6                                                     00700000
&NOGO    SETB  1                                                        00750000
         AGO   .R1                                                      00800000
.ERR2    IHBERMAC 3                                                     00850000
.TERM    ANOP                                                           00900000
         MEXIT                                                          00950000
.ERR3    IGGERMAC 111                   INVALID PARAMETER FOR TYPE @H1C 00966600
         MEXIT                                                          00983200
.JES     ANOP                                                           01000000
         AIF   ('&MF' EQ '').JESOK       MF PARAMETER INVALID FOR  @H1A 01012500
         IGGERMAC 52                     MF PARAMETER IGNORED      @H1A 01025000
.JESOK   ANOP                                                      @H1A 01037500
&NAME    DS    0H                                                       01050000
         AIF   ('&RPL'(1,1) EQ '(').RPLR                                01100000
         LA    1,&RPL                   LOAD RPL ADDR                   01150000
         AGO   .AREG                                                    01200000
.RPLR    LR    1,&RPL(1)                LOAD RPL ADDR VIA REG           01250000
.AREG    LA    0,X'03'                  INDICATE POINT IN REG           01300000
         L     15,24(1)                 LOAD ACB ADDR FROM RPL          01350000
         L     15,8(15)                 LOAD JES INTERFACE MOD ADDR     01600000
         BALR  14,15                    LINK TO INTERFACE ROUTINE       01700000
         MEND                                                           01800000
**/  POINT: MACRO KEYS(0:1(DCB_NAME,DCB_ADDR),                 /*@L2A*/ 01850000
*             0:1(BLOCKID_NAME,BLOCKID_ADDR),RETCODE,RSNCODE,  /*@L2A*/ 01900000
*           0:1(ABS_BLOCK,REL_BLOCK,BLOCKID_TYPE('RELATIVE')));/*@L2A*/ 01950000
*ANS('? '||MACLABEL||' POINTP '||MACKEYS||';') RESCAN SKIP;    /*@L2A*/ 02000000
* %END POINT;                                                  /*@L2A*/ 02050000
