*********************************************************************** 00050000
*        @PROCESS  OPT(4),FORMAT,GMAR(1,72),NOIMP,                    * 00100000
*                                                                     * 00150000
*PROPRIETARY V3 STATEMENT                                             * 00200000
*LICENSED MATERIALS - PROPERTY OF IBM                                 * 00250000
*"RESTRICTED MATERIALS OF IBM"                                        * 00300000
*5695-DF1                                                             * 00350000
*(C) COPYRIGHT 1992  IBM CORP.                                        * 00400000
*END PROPRIETARY V3 STATEMENT                                         * 00450000
*********************************************************************** 00550000
         MACRO                                                          07000000
&NAME    PROTECT   &REG                                                 14000000
.*A 210500,211000                                                A43356 14050000
.*C 280000                                                       A43356 14100000
         AIF   ('&REG' EQ  '').ERR1                                     21000000
         AIF   ('&NAME' EQ '').NLBL                              A43356 21050000
&NAME    DS    0H                                                A43356 21100000
.NLBL    AIF   ('&REG' EQ '(1)').GOEN                            A43356 28000000
         AIF   ('&REG'(1,1) NE '(').GADD                                35000000
         LR    1,&REG(1)           LOAD PARAMETER REGISTER              42000000
         AGO   .GOEN                                                    49000000
.GADD    LA    1,&REG              LOAD PARAMETER REGISTER              56000000
.GOEN    SVC   98                  ISSUE PROTECT SVC                    63000000
         AGO   .END                                                     70000000
.ERR1    MNOTE 'PARAMETER NOT SPECIFIED'                                77000000
.END     MEND                                                           84000000
