*********************************************************************** 00050000
*PROPRIETARY V3 STATEMENT                                             * 00100000
*LICENSED MATERIALS - PROPERTY OF IBM                                 * 00150000
*"RESTRICTED MATERIALS OF IBM"                                        * 00200000
*5695-DF1                                                             * 00250000
*(C) COPYRIGHT 1992  IBM CORP.                                        * 00300000
*END PROPRIETARY V3 STATEMENT                                         * 00350000
*********************************************************************** 00550000
         MACRO                                                          00800000
&NAME    PSEUDO  &TMP=,                                                X01600000
               &PSEUDO=,                                               X02400000
               &MF=                                                     03200000
         GBLA  &$PSEUDO(5)                                              04000000
.*                                                                      04800000
.*       THIS MACRO SETS UP THE PSEUDO RETRY ROUTINE CONTROL BLOCK USED 05600000
.*       BY IKJEHSIR TO SUPPLY THE RETRY ROUTINE WITH ADDRESSABILITY.   06400000
.*                                                                      07200000
.*       &TMP IS THE ADDRESS OF THE WORD CONTAINING REG 1 AS THE TMP    08000000
.*             PASSED  TO THE CP.  IF IT IS REG FORM, THE REGISTER      08800000
.*             MUST CONTAIN REG 1 AS PASSED BY THE TMP.                 09600000
.*       &PSEUDO IS THE NAME OF THE PSEUDO MF=L FORM OF PSEUDO          10400000
.*                                                                      11200000
         AIF   ('&MF' EQ 'E').MFE  EXECUTE FORM                         12000000
.*                                                                      12800000
.*             LIST FORM                                                13600000
.*                                                                      13650000
.* CHECK TO SEE IF WE HAVE BEEN THRU ONCE, IF SO NEED A NAME            13700000
.*                                                                      13750000
         AIF   (&$PSEUDO(5) NE 0 AND T'&NAME EQ 'O').SEV0               14400000
&$PSEUDO(5) SETA &$PSEUDO(5)+1     SET TIMES THRU SW                    15200000
         SPACE 1                                                        16000000
&NAME    DS    0F                  FULLWORD ALIGNMENT                   16800000
         SPACE 1                                                        16850000
         AIF   (T'&NAME NE 'O').HISPS  USE HIS NAME                     17600000
$PSEUDO  DC    X'980FF008'         LM R0,R15,8(R15) LOAD REGS           18400000
         AGO   .DC47                                                    19200000
.HISPS   DC    X'980FF008'         LM R0,R15,8(R15) LOAD REGS           20000000
.DC47    DC    X'47F0F000'         B  0(R15)  BR TO RETRY               20800000
         SPACE 1                                                        21600000
.*                                                                      21650000
.* TO AVOID DUPLICATE NAMES, CHECK 1ST TIME THRU SW                     21700000
.*                                                                      21750000
         AIF   (&$PSEUDO(5) GT 1).DSIT   ONLY GEN ONCE                  21800000
*        THE FOLLOWING 16 DC'S ARE A STORAGE AREA FOR THE               22400000
*        RETRY ROUTINE'S REGISTERS.  THE SLOTS FOR R0, R1, R2,          23200000
*        AND R15 WILL BE SET UP BY THE STAE EXIT ROUTINE                24000000
*        AS FOLLOWS:                                                    24800000
*              R0    THE CODE GIVEN TO THE EXIT ROUTINE BY STAE         25600000
*              R1    THE ABEND CODE, RIGHT JUSTIFIED                    26400000
*              R2    THE ENTRY NUMBER IN A CODE LIST                    27200000
*              R15   THE ADDRESS OF THE RETRY ROUTINE                   28000000
*                                                                       28050000
*        IF THE ENTRY IS FOR A 33E ABEND, R13 AND R14 WILL BE           28100000
*        SET UP AS FOLLOWS:                                             28150000
*              R13   POINTER TO A SAVE AREA                             28200000
*              R14   RETURN ADDRESS TO IKJEHSIR                         28250000
*                                                                       28300000
         SPACE 1                                                        28800000
.*                                                                      28900000
.* IF THE USER OF THE MACRO USES IT TWICE, THE SECOND TIME              28950000
.* IT IS USED, A DS IS GENERATED FOR THE DC'S THAT FOLLOW               29000000
.*                                                                      29050000
$RETRY0  DC    F'0'                STORAGE FOR R0                       29600000
$RETRY1  DC    F'0'                STORAGE FOR R1                       30400000
$RETRY2  DC    F'0'                STORAGE FOR R2                       31200000
$RETRYS  DC    10F'0'              THE REST OF THE REGS                 32000000
$RETRY13 DC    F'0'                STORAGE FOR R13                      32800000
$RETRY14 DC    F'0'                STORAGE FOR R14                      33600000
$RETRY15 DC    F'0'                STORAGE FOR R15                      34400000
         AGO   .DSIT1              BYPASS                               34450000
.DSIT    DS    16F                 STORAGE FOR REGISTERS                34500000
         SPACE 1                                                        34510000
         AGO   .DSIT3              BYPASS COMMENTS                      34520000
.DSIT1   ANOP                                                           34550000
         SPACE 1                                                        35200000
*        THE FOLLOWING WORD IS REQUIRED SO THAT THE PUTLINE             36000000
*        ROUTINE CAN BE CALLED BY THE STAE EXIT ROUTINE.                36800000
*        IT IS REGISTER 1 AS GIVEN TO THE CP BY THE TMP.                37600000
         SPACE 1                                                        38400000
$TMPR1   DC    F'0'                REG 1 FROM TMP                       39200000
         AGO   .DSIT4              BYPASS                               39250000
.DSIT3   DS    F                   STORAGE FOR TMP REG 1                39300000
.DSIT4   ANOP                                                           39350000
         SPACE 1                                                        40000000
         MEXIT                                                          40800000
.*                                                                      41600000
.*             EXECUTE FORM                                             42400000
.*                                                                      43200000
.*       IF WE HAVE ALREADY GENNED THE TWO DC'S, DONT DO IT AGAIN       44000000
.*                                                                      44800000
.MFE     AIF   (&$PSEUDO(1) EQ 1).NO                                    45600000
.*                                                                      46400000
.*       NEED A NAME FOR THE BRANCH INSTRUCTION                         47200000
.*                                                                      48000000
         AIF   (T'&NAME EQ 'O').NONAM                                   48800000
         SPACE 1                                                        49600000
&$PSEUDO(1) SETA 1                                                      50400000
         B     &NAME               BR AROUND INSTRUCTIONS               51200000
         SPACE 1                                                        52000000
$PINSTR  DC    X'980FF008'         LM R0,R15,8(R15)                     52800000
         DC    X'47F0F000'         B  0(R15)                            53600000
.NO      SPACE 1                                                        54400000
.*                                                                      55200000
.*       IF HE HAS PASSED ME A NAME FOR THE PSEUDO MF=L, USE IT         56000000
.*             IF NOT, WE WILL USE MY GENERATED NAME                    56800000
.*                                                                      57600000
         AIF   (T'&PSEUDO EQ 'O').MYNAME                                58400000
.*                                                                      58450000
.* CHECK TO SEE IF IN A REGISTER                                        58500000
.*                                                                      58550000
         AIF   ('&PSEUDO'(1,1) EQ '(').HISREG                           59200000
&NAME    MVC   &PSEUDO.(8),$PINSTR MOVE INSTRUCTIONS                    60000000
         STM   0,15,&PSEUDO+8      STORE REGS                           60800000
.*             IF NO TMP PARM, GET OUT                                  61600000
         AIF   (T'&TMP EQ 'O').END                                      62400000
         AIF   ('&TMP'(1,1) EQ '(').HISREGN                             63200000
         L     14,&TMP             GET TMP REG1                         64000000
         ST    14,&PSEUDO+72       STORE IN LIST                        64800000
         AGO   .END                                                     65600000
.HISREG  ANOP                                                           66400000
&NAME    MVC   0(8,&PSEUDO(1)),$PINSTR  MOVE INSTRUCTIONS               67200000
         STM   0,15,8(&PSEUDO(1))  STORE REGS                           68000000
         AIF   (T'&TMP EQ 'O').END                                      68800000
         AIF   ('&TMP'(1,1) EQ '(').HISREGT                             69600000
         L     14,&TMP             GET TMP REG 1                        70400000
         ST    14,72(&PSEUDO(1))   STORE IN LIST                        71200000
         AGO   .END                                                     72000000
.HISREGN ST    &TMP(1),&PSEUDO+72  STORE IN LIST                        72800000
         AGO   .END                                                     73600000
.HISREGT ST &TMP(1),72(&PSEUDO(1)) STORE IN LIST                        74400000
         AGO   .END                                                     75200000
.MYNAME  ANOP                                                           76000000
&NAME    MVC   $PSEUDO(8),$PINSTR  MOVE INSTRUCTIONS                    76800000
         STM   0,15,$RETRY0        STORE ALL REGS                       77600000
         AIF   (T'&TMP EQ 'O').END                                      78400000
         AIF   ('&TMP'(1,1) EQ '(').RTMP                                79200000
         L     14,&TMP             GET TMP REG 1                        80000000
         ST    14,$TMPR1           STORE IN LIST                        80800000
.END     SPACE 1                                                        81600000
         MEXIT                                                          82400000
.RTMP    ST    &TMP(1),$TMPR1      STORE TMP REG 1                      83200000
         AGO   .END                                                     84000000
.NONAM   MNOTE 8,'NAME FIELD OMITTED'                                   84800000
         SPACE 1                                                        85600000
         MEXIT                                                          86400000
.SEV0    MNOTE *,'PSEUDO MACRO USED MORE THAN ONCE AND NAME OMITTED'    87200000
         SPACE 1                                                        88000000
         MEXIT                                                          88800000
         MEND                                                           89600000
