         MACRO                                                          00020000
&NAME    PURGE &LIST                                                    00040000
.********************************************************************** 00042000
.*                                                                    * 00044000
.*   COPYRIGHT -                                                      * 00046000
.*     5740-XC6                                                       * 00048000
.*     THIS MACRO IS "RESTRICTED MATERIALS OF IBM"                    * 00050000
.*     (C) COPYRIGHT IBM CORP. 1977                                   * 00052000
.*     LICENSED MATERIALS - PROPERTY OF IBM                           * 00054000
.*                                                                    * 00056000
.*                                                                    * 00056200
.*   CHANGE-ACTIVITY =                                                * 00056400
.*                                                                    * 00056600
.* $MOD(MODNAME),COMP(SC1C3):                                         * 00056800
.*                                                                    * 00057000
.*  $01=OY47085 JBB3313 910911 PDMC: SUPPORT FOR OY43794.        @01A * 00057200
.********************************************************************** 00058000
         AIF   ('&LIST' EQ '').E1                                       00060000
&NAME    IHBINNRA &LIST                     LOAD REG 1                  00080000
         SVC   16                                ISSUE SVC FOR PURGE    00100000
         MEXIT                                                          00120000
.E1      IHBERMAC 01,147                    LIST ADDR MISSING           00140000
         MEND                                                           00160000
