         MACRO                                                          00050000
&NAME    PURGEDQ    &ASID=,&ASIDTCB=,&RMTR=,&MF=I                       00100000
         AIF   ('&MF' EQ 'I').I1        STANDARD FORM                   00150000
         AIF   ('&MF' EQ 'L').L1        LIST FORM                       00200000
         AIF (N'&MF NE 2).ERR2          WRONG FORM                      00210000
         AIF   ('&MF(1)' EQ 'E').EX1    EXECUTE FORM                    00250000
.ERR2    ANOP                           MF SPECIFIED WRONG              00260000
         IHBERMAC   1001,MF,&MF                                         00300000
         MEXIT                                                          00350000
.I1      ANOP                                                           00400000
         CNOP  0,4                                                      00450000
&NAME    BAL   1,*+16         BRANCH AROUND PARAMETER LIST              00500000
         DC    A(0) ADDRESS OF ASID PARAMETER                           00550000
         DC    A(0) ADDRESS OF ASIDTCB PARAMETER                        00600000
         DC    A(0) ADDRESS OF RMTR                                     00650000
         AIF   ('&ASID' EQ '').OP2    ASID PRESENT?                     00700000
         STORADR    0,&ASID                                             00750000
.OP2     ANOP                                                           00800000
         AIF   ('&ASIDTCB' EQ '').OP3   ASIDTCB PRESENT?                00850000
         STORADR    4,&ASIDTCB                                          00900000
.OP3     ANOP                                                           00950000
         AIF   ('&RMTR' EQ '').ERR1     RMTR PRESENT ?                  01000000
         STORADR    8,&RMTR                                             01050000
         SVC   123                      ISSUE SVC                       01100000
         MEXIT                                                          01200000
.ERR1    ANOP                                                           01250000
         IHBERMAC  1017,RMTR                                            01300000
         MEXIT                                                          01350000
.L1      ANOP  LIST FORM                                                01400000
&NAME    DS    0A     FULLWORD ALIGNMENT                                01500000
         AIF   ('&ASID' NE '').L2  ASID PRESENT ?                       01550000
         DC    A(0) ADDRESS OF ASID                                     01600000
         AGO   .L3  GET ASIDTCB                                         01650000
.L2      ANOP  ASID SPECIFIED                                           01700000
         AIF   ('&ASID'(1,1) EQ '(').ERR69                              01750000
         DC    A(&ASID)  ADDRESS OF ASID                                01800000
.L3      ANOP  FORM ASIDTCB ADDRESS                                     01850000
         AIF   ('&ASIDTCB' NE '').L4    ASIDTCB PRESENT                 01900000
         DC    A(0) ASIDTCB NOT GIVEN                                   01950000
         AGO   .L5  GET RMTR                                            02000000
.L4      ANOP                                                           02050000
         AIF   ('&ASIDTCB'(1,1) EQ '(').ERR69                           02100000
         DC    A(&ASIDTCB)    ADDRESS OF ASIDTCB                        02150000
.L5      ANOP  PICK UP RMTR ADDRESS                                     02200000
         AIF   ('&RMTR' NE '').L6  RMTR GIVEN ?                         02250000
         DC    A(0) RMTR NOT GIVEN                                      02300000
         AGO   .L7                                                      02350000
.L6      ANOP                                                           02400000
         AIF   ('&RMTR'(1,1) EQ '(').ERR69                              02450000
         DC    A(&RMTR)  GET ADDRESS OF RMTR                            02500000
.L7      ANOP                                                           02550000
         MEXIT                                                          02600000
.EX1     ANOP                      EXECUTE FORM                         02650000
&NAME    DS    0H                       HALFWORD BOUNDARY               02700000
         AIF   ('&MF(2)' EQ '(1)').EX2       ADDR IN REGISTER 1         02800000
         AIF   ('&MF(2)'(1,1) EQ '(').REG    REGISTER NOTATION          02850000
         LA    1,&MF(2)                                                 02900000
         AGO   .EX2                                                     02950000
.REG     ANOP                                                           03000000
         LR    1,&MF(2)                 LOAD ADDRESS INTO REG 1         03050000
.EX2     ANOP                                                           03100000
         AIF   ('&ASID' EQ '').EXOP2   IS ASID SPECIFIED                03150000
         STORADR              0,&ASID                                   03200000
.EXOP2   ANOP                                                           03250000
         AIF   ('&ASIDTCB' EQ '').EXOP3   IS ASIDTCB SPECIFIED          03300000
         STORADR              4,&ASIDTCB                                03350000
.EXOP3   ANOP                                                           03400000
         AIF   ('&RMTR' EQ '').SVC                                      03450000
         STORADR              8,&RMTR                                   03500000
.SVC     ANOP                                                           03550000
         SVC   123                      ISSUE SVC                       03600000
         MEXIT                                                          03700000
.ERR69   ANOP                                                           03750000
         IHBERMAC 69                                                    03800000
         MEND                                                           03850000
