*%/*                                                              @L2A  00002000
*********************************************************************** 00004100
*PROPRIETARY V3 STATEMENT                                             * 00009200
*LICENSED MATERIALS - PROPERTY OF IBM                                 * 00014300
*"RESTRICTED MATERIALS OF IBM"                                        * 00019400
*5695-DF1                                                             * 00024500
*(C) COPYRIGHT 1992  IBM CORP.                                        * 00029600
*END PROPRIETARY V3 STATEMENT                                         * 00037300
*********************************************************************** 00045100
         MACRO                                                          00050000
&NAME    PUT   &DCB,&AREA,&RPL=                                         00100000
.*       CHANGE LEVEL = 06                                              00150000
.*       DATE OF LAST CHANGE = 24 MARCH 72  ( 72*084 )                  00200000
.*$L1=31BIT,JDZ1110,,SJPLRK:  INVOCABLE IN 31-BIT MODE             @L1A 00225000
.*$L2=PLX  ,JDZ1110,930930,SJPLMET: PL/X SUPPORT                   @L2A 00237500
         AIF   ('&DCB' NE '').NJES      NON-JES MACRO EXPANSION         00250000
         AIF   ('&RPL' NE '').JES       JES MACRO EXPANSION             00300000
         IHBERMAC 06                                                    00350000
         MEXIT                                                          00400000
.NJES    ANOP                                                           00450000
&NAME    IHBINNRA &DCB,&AREA                                            00500000
         SLR   15,15                    CLEAR REGISTER             @L1A 00533300
         ICM   15,7,49(1)               LOAD PUT ROUTINE ADDR      @L1C 00566600
         BALR  14,15                    LINK TO PUT ROUTINE             00600000
         MEXIT                                                          00650000
.JES     ANOP                                                           00700000
&NAME    DS    0H                                                       00750000
         AIF   ('&RPL'(1,1) EQ '(').RPLR                                00800000
         LA    1,&RPL                   LOAD RPL ADDR                   00850000
         AGO   .AREG                                                    00900000
.RPLR    LR    1,&RPL(1)                LOAD RPL ADDR VIA REG           00950000
.AREG    LA    0,X'01'                  INDICATE PUT IN REG             01000000
         L     15,24(1)                 LOAD ACB ADDR FROM RPL          01050000
         L     15,8(15)                 LOAD JES INTERFACE MOD ADDR     01300000
         BALR  14,15                    LINK TO INTERFACE ROUTINE       01400000
         MEND                                                           01500000
**/ PUT: MACRO KEYS(0:1(DCB_NAME,DCB_ADDR),0:1(AREA_NAME,      /*@L2A*/ 01550000
*   AREA_ADDR),0:1(RPL_NAME,RPL_ADDR),RECORD_ADDR,SYNAD_NAME); /*@L2A*/ 01600000
* ANS('? '||MACLABEL|| ' PUTP '||MACKEYS||';') RESCAN SKIP;    /*@L2A*/ 01650000
*  %END PUT;                                                   /*@L2A*/ 01700000
