*********************************************************************** 00001600
*PROPRIETARY V3 STATEMENT                                             * 00003600
*LICENSED MATERIALS - PROPERTY OF IBM                                 * 00005600
*"RESTRICTED MATERIALS OF IBM"                                        * 00007600
*5695-DF1                                                             * 00009600
*(C) COPYRIGHT 1992  IBM CORP.                                        * 00011600
*END PROPRIETARY V3 STATEMENT                                         * 00014600
*********************************************************************** 00017600
         MACRO                                                          00020000
&NAME    RDJFCB &PARA,&MF=I                                             00040000
         GBLB  &IHBRDJ                                                  00060000
&IHBRDJ  SETB  1                                                        00100000
         AIF   (N'&SYSLIST LE 1).OPEN   IF ONLY 1 (PARMLIST)     A45585 00110000
         IHBERMAC 238                   EXCESSIVE POS. PARMS     A45585 00120000
.OPEN    ANOP                                                    A45585 00130000
&NAME    OPEN  &PARA,MF=&MF                                             00140000
&IHBRDJ  SETB  0                                                        00160000
         AIF   ('&MF' EQ 'L').END                                       00180000
         SVC   64                                ISSUE RDJFCB SVC       00200000
.END     MEND                                                           00220000
