*********************************************************************** 00001600
*PROPRIETARY V3 STATEMENT                                             * 00003600
*LICENSED MATERIALS - PROPERTY OF IBM                                 * 00005600
*"RESTRICTED MATERIALS OF IBM"                                        * 00007600
*5695-DF1                                                             * 00009600
*(C) COPYRIGHT 1992  IBM CORP.                                        * 00011600
*END PROPRIETARY V3 STATEMENT                                         * 00014600
*********************************************************************** 00017600
         MACRO                                                          00020000
&NAME    RELEX &TYPE,&DCB,&BLKREF                                       00040000
.*   BDAM - &BLKREF, ISAM - &DECB                                       00050000
         AIF   ('&DCB' EQ '').ERR1                                      00060000
         AIF   ('&TYPE' EQ 'K').ISAM                                    00070000
         AIF   ('&BLKREF' EQ '').ERR2                                   00080000
         AIF   ('&TYPE' EQ 'D' OR T'&TYPE EQ 'O').GO                    00084000
         AGO   .ERR4                                                    00088000
.ISAM    AIF   ('&BLKREF' EQ '').ERR3                                   00092000
.GO      ANOP                                                           00096000
&NAME    IHBINNRA &DCB,&BLKREF                                          00100000
         SVC   53                                ISSUE RELEX SVC        00160000
         MEXIT                                                          00180000
.ERR1    IHBERMAC 6                                                     00200000
         MEXIT                                                          00220000
.ERR2    IHBERMAC 12                                                    00240000
         MEXIT                                                          00260000
.ERR3    IHBERMAC 7                                                     00266000
         MEXIT                                                          00272000
.ERR4    IHBERMAC 48,,&TYPE                                             00280000
         MEND                                                           00300000
