*********************************************************************** 00001600
*PROPRIETARY V3 STATEMENT                                             * 00003600
*LICENSED MATERIALS - PROPERTY OF IBM                                 * 00005600
*"RESTRICTED MATERIALS OF IBM"                                        * 00007600
*5695-DF1                                                             * 00009600
*(C) COPYRIGHT 1992  IBM CORP.                                        * 00011600
*END PROPRIETARY V3 STATEMENT                                         * 00014600
*********************************************************************** 00017600
.*  CHANGE ACTIVITY                                                     00018400
.* $L1=31BIT,JDZ1110,,SJPLRK:  INVOCABLE IN 31-BIT MODE            @L1A 00019200
         MACRO                                                          00020000
&NAME    RELSE &DCB,&DUMMY=                                             00040000
         AIF   ('&DCB' EQ '').E1                                        00060000
&NAME    IHBINNRA &DCB                                                  00080000
         SLR   15,15                             CLEAR REGISTER    @L1A 00093300
         ICM   15,7,49(1)                        LOAD REG FROM DCB @L1C 00106600
         BAL   14,8(0,15)                        LINK TO RELSE ROUTINE  00120000
         MEXIT                                                          00140000
.E1      IHBERMAC 6                     DCB MISSING                     00160000
         MEND                                                           00180000
