*********************************************************************** 00001600
*        @PROCESS  OPT(4),FORMAT,GMAR(1,72),NOIMP,                    * 00003200
*                                                                     * 00004800
*PROPRIETARY V3 STATEMENT                                             * 00006400
*LICENSED MATERIALS - PROPERTY OF IBM                                 * 00008000
*"RESTRICTED MATERIALS OF IBM"                                        * 00009600
*5695-DF1                                                             * 00011200
*(C) COPYRIGHT 1992  IBM CORP.                                        * 00012800
*END PROPRIETARY V3 STATEMENT                                         * 00015200
*********************************************************************** 00017600
         MACRO                                                          00020000
&NAME    RENAME &LIST,&DUMMY=                                           00040000
         AIF   (T'&LIST EQ 'O').E1                                      00060000
&NAME    IHBINNRA &LIST                 LOAD REG 1                      00080000
         SVC   30                       ISSUE RENAME SVC                00100000
         MEXIT                                                          00120000
.E1      IHBERMAC 34                    LIST ADDR MISSING               00140000
         MEND                                                           00160000
