         MACRO                                                          01000019
&NAME    RESCN &DCB,&P1,&P2,&P3,&P4                                     02000019
.*                                                                      02050002
.* MODULE-NAME=RESCN(OS/VS2)MACRO                              @YM00638 02100002
.*                                                                      02150002
.* DESCRIPTIVE-NAME=REREAD FIELD X TIMES, ALLOW CORRECTION     @YM00638 02200002
.*                                                                      02250002
.* COPYRIGHT=NONE                                              @YM00638 02300002
.*                                                                      02350002
         LCLA  &AL1,&COUNT,&STEP,&NUMB                                  03000019
         LCLB  &NOGEN,&FSWIT,&PARMSW,&NUMSW                             04000019
         LCLC  &PARM1,&PARM2,&REG1,&REG2                                05000019
.*C890000                                                        A39672 05300001
.*D880000                                                        A39672 05600001
&AL1     SETA  1                                                        06000019
&NUMB    SETA  0                                                        07000019
         AIF   (T'&DCB NE 'O').RS0011                                   08000019
.RS001   IHBERMAC 202                                                   09000019
&NOGEN   SETB  1                                                        10000019
         AGO   .RS002                                                   11000019
.RS0011  AIF   (T'&NAME EQ 'O').RS0012                                  12000019
&NAME    EQU   *                                                        13000019
.RS0012  AIF   ('&DCB'(1,1) NE '(' AND '&DCB'(K'&DCB,1) NE ')').RS0015  14000019
         AIF   ('&DCB'(2,1) EQ '1' AND '&DCB'(3,1) EQ ')').RS002        15000019
&REG1    SETC  '&DCB'(2,1)                                              16000019
         AIF   ('&DCB'(3,1) NE ')').RS0013                              17000019
         AIF   ('&DCB'(2,1) GE '2' AND '&DCB'(2,1) LE '9').RS0014       18000019
         AGO   .RS001                                                   19000019
.RS0013  ANOP                                                           20000019
&REG2    SETC  '&DCB'(3,1)                                              21000019
         AIF   ('&DCB'(2,1) EQ '1' AND '&DCB'(3,1) GE '0' AND '&DCB'(3,X22000019
               1) LE '2').RS0014                                        23000019
         AGO   .RS001                                                   24000019
.RS0014  LR    1,&REG1&REG2                                             25000019
         AGO   .RS002                                                   26000019
.RS0015  LA    1,&DCB   GET DCB ADDRESS                                 27000019
.RS002   ANOP                                                           28000019
&AL1     SETA  &AL1+1                                                   29000019
         AIF   (T'&SYSLIST(&AL1) EQ 'O').RS003                          30000019
         AIF   ('&SYSLIST(&AL1)'(1,1) NE '(' OR '&SYSLIST(&AL1)'(K'&SYSX31000019
               LIST(&AL1),1) NE ')').RS0024                             32000019
         AIF   (&PARMSW NE 1).RS0022                                    33000019
         IHBERMAC 208                                                   34000019
         AGO   .RS002                                                   35000019
.RS0022  ANOP                                                           36000019
&PARMSW  SETB  1                                                        37000019
&AL1     SETA  &AL1+1                                                   38000019
         AIF   ('&SYSLIST(&AL1)'(1,1) EQ '(' AND '&SYSLIST(&AL1)'(K'&SYX39000019
               SLIST(&AL1),1) EQ ')').RS0023                            40000019
         IHBERMAC 204                                                   41000019
&NOGEN   SETB  1                                                        42000019
&AL1     SETA  &AL1-1                                                   43000019
         AGO   .RS002                                                   44000019
.RS0023  ANOP                                                           45000019
&PARM1   SETC  '&SYSLIST(&AL1-1)'                                       46000019
&PARM2   SETC  '&SYSLIST(&AL1)'                                         47000019
         AGO   .RS002                                                   48000019
.RS0024  AIF   ('&SYSLIST(&AL1)' NE 'F').RS0025                         49000019
&FSWIT   SETB  1                                                        50000019
         AGO   .RS002                                                   51000019
.RS0025  ANOP                                                           52000019
         AIF   ('&SYSLIST(&AL1)'(1,1) LT '0').RS0027                    53000019
&COUNT   SETA  K'&SYSLIST(&AL1)                                         54000019
&STEP    SETA  1                                                        55000019
.RS0026  AIF   ('&SYSLIST(&AL1)'(&STEP,1) LT '0' OR '&SYSLIST(&AL1)'(&SX56000019
               TEP,1) GT '9').RS00291                                   57000019
&COUNT   SETA  &COUNT-1                                                 58000019
&STEP    SETA  &STEP+1                                                  59000019
         AIF   (&COUNT EQ 0).RS0028                                     60000019
         AGO   .RS0026                                                  61000019
.RS0027  IHBERMAC 207                                                   62000019
         AGO   .RS002                                                   63000019
.RS0028  AIF   (&NUMSW EQ 0).RS0029                                     64000019
         IHBERMAC 208                                                   65000019
         AGO   .RS002                                                   66000019
.RS0029  ANOP                                                           67000019
&NUMSW   SETB  1                                                        68000019
         AIF   ('&SYSLIST(&AL1)' LE '9').RS00292                        69000019
         IHBERMAC 205                                                   70000019
&NUMB    SETA  9                                                        71000019
         AGO   .RS002                                                   72000019
.RS00291 IHBERMAC 206                                                   73000019
&NUMB    SETA  1                                                        74000019
         AGO   .RS002                                                   75000019
.RS00292 ANOP                                                           76000019
&NUMB    SETA  &SYSLIST(&AL1)                                           77000019
         AGO   .RS002                                                   78000019
.RS003   AIF   (&NOGEN EQ 0).RS0031                                     79000019
         MEXIT                                                          80000019
.RS0031  AIF   (&PARMSW EQ 0).RS004                                     81000019
         L     15,68(1) GET IOB ADDRESS                                 82000019
         MVC   48(16,15),0&PARM1 MOVE READ AND LF CCW,> TO IOB          83000019
         MVC   40(8,15),0&PARM2  MOVE LF FOR REG MARK TO IOB            84000019
.RS004   AIF   (&FSWIT EQ 0).RS0041                                     85000019
         LA    0,X'F&NUMB.' SET NUMBER OF RETRIES AND FORCE CORRECTION  86000019
         AGO   .RS005                                                   87000019
.RS0041  LA    0,X'0&NUMB.' SET NUMBER OF RETRIES                A39672 88000001
.RS005   L     15,12(1)  GET ADDRESS OF RESCN MODULE                    90000019
         BALR  14,15  LINK TO RESCN MODULE                              91000019
         MEND                                                           92000019
