         MACRO                                                          00050002
&NAME    RESERVE &PARAM,&SMC=,&RET=,&UCB=,&ECB=,&MF=I,                 X00083300
               &MASID=,&MTCB=,&RELATED=,&LOC=                      @01C 00085500
.*/* START OF SPECIFICATIONS ***************************************    00087700
.*                                                                      00089900
.*01* MACRO-NAME = RESERVE                                              00092100
.*                                                                      00094300
.*01*  MACR0-DATE = 05/05/95                                       @01C 00095000
.*                                                                      00095700
.*01* DESCRIPTIVE-NAME = RESERVE MACRO                                  00096500
.*                                                                      00097000
.*                                                                      00098700
.*01* PROPRIETARY STATEMENT =                                           00100100
.*                                                                      00101500
.*       LICENSED MATERIALS - PROPERTY OF IBM                           00102900
.*       THIS MACRO IS "RESTRICTED MATERIALS OF IBM"                    00104300
.*       5655-068 (C) COPYRIGHT IBM CORP. 1981, 1994                    00105700
.*                                                                      00107500
.*01* STATUS = HBB5520                                                  00109700
.*                                                                      00110200
.*01* EXTERNAL CLASSIFICATION: GUPI                                     00110700
.*01* END OF EXTERNAL CLASSIFICATION:                                   00111200
.*                                                                      00111900
.*01* FUNCTION =                                                        00114100
.*                GENERATE RESERVE SVC (SVC 56).  ALSO, GENERATE        00116300
.*                AND/OR MODIFY THE RESERVE PARAMETER-LIST.             00118500
.*                                                                      00120700
.*01* MODULE-TYPE = MACRO                                               00125100
.*                                                                      00127300
.*01* PROCESSOR = ASSEMBLER                                             00129500
.*                                                                      00131700
.*01* MACROS = ENQ                                                 @L2C 00133900
.*                                                                      00136100
.*01* CHANGE-ACTIVITY                                                   00138300
.*                                                                      00139700
.*  $L1=MASIDENQ JBB2125 830411 PD1L:ADD MASID AND                      00141100
.*              MTCB OPERANDS.                                     @L1A 00142700
.*  $L2=UCBVP   HBB5520 940210 PDAW: Add DEVN keyword.             @L2A 00142900
.*  $P1=PEO4327 HBB4410 900604 PDDX: DO NOT IGNORE ECB WHEN SPECIFIED   00143100
.*                                   WITH RET AND SMC KEYS.        @P1A 00143300
.*  $P2=PN70247 HBB5520 940310 PDAW: Update macdate.               @P2A 00143500
.*  $P3=PN70627 HBB5520 940602 PDAW: Fix copyright.                @P3A 00143700
.*  $P4=PN71744 HBB5520 941022 PDAW: Add External Class.           @P4A 00143900
.*  $01=OW11070 HBB4420 950303 PDHB: Remove/add support for DEVN/LOC    00144100
.*                                   keywords, respectively.  DCR 105   00144300
.*                                                                 @01A 00144500
.*                                                                      00144900
.*** END OF SPECIFICATIONS *******************************************/ 00147100
         GBLB  &IHBRES                                                  00150002
*        MACRO-DATE = 05/05/95                                     @01C 00175000
&IHBRES  SETB  1                                                        00200002
         AIF   ('&MF(1)' EQ 'E').RES000                                 00250002
         AIF   ('&UCB' NE '').RES000                               @01C 00300000
         IHBERMAC 157,UCB,&UCB                                     @01C 00350000
.RES000  ANOP                                                           00400002
         AIF   ('&ECB' NE '').RES00A         *                          00450002
         AIF   ('&SMC' EQ '' AND '&RET' EQ '' AND '&UCB' EQ '').RES010  00500002
         AIF   ('&SMC' EQ '' AND '&RET' EQ '').RES020                   00550002
         AIF   ('&RET' EQ '' AND '&UCB' EQ '').RES030                   00600002
         AIF   ('&SMC' EQ '' AND '&UCB' EQ '').RES040                   00650002
         AIF   ('&UCB' EQ '').RES050                                    00700002
         AIF   ('&SMC' EQ '').RES060                                    00750002
         AIF   ('&RET' EQ '').RES070                                    00800002
&NAME    ENQ   &PARAM,SMC=&SMC,RET=&RET,UCB=&UCB,MF=&MF,MASID=&MASID,  X00833300
               MTCB=&MTCB,LOC=&LOC                                 @01C 00866600
         AGO   .RES080                                                  00900002
.RES010  ANOP                                                           00950002
&NAME    ENQ   &PARAM,MF=&MF,MASID=&MASID,MTCB=&MTCB,LOC=&LOC      @01C 01000000
         AGO   .RES080                                                  01050002
.RES020  ANOP                                                           01100002
&NAME    ENQ   &PARAM,UCB=&UCB,MF=&MF,MASID=&MASID,MTCB=&MTCB,         X01133300
               LOC=&LOC                                            @01C 01166600
         AGO   .RES080                                                  01200002
.RES030  ANOP                                                           01250002
&NAME    ENQ   &PARAM,SMC=&SMC,MF=&MF,MASID=&MASID,MTCB=&MTCB,         X01283300
               LOC=&LOC                                            @01C 01316600
         AGO   .RES080                                                  01350002
.RES040  ANOP                                                           01400002
&NAME    ENQ   &PARAM,RET=&RET,MF=&MF,MASID=&MASID,MTCB=&MTCB,         X01433300
               LOC=&LOC                                            @01C 01466600
         AGO   .RES080                                                  01500002
.RES050  ANOP                                                           01550002
&NAME    ENQ   &PARAM,SMC=&SMC,RET=&RET,MF=&MF,MASID=&MASID,           X01583300
               MTCB=&MTCB,LOC=&LOC                                 @01C 01616600
         AGO   .RES080                                                  01650002
.RES060  ANOP                                                           01700002
&NAME    ENQ   &PARAM,RET=&RET,UCB=&UCB,MF=&MF,MASID=&MASID,           X01733300
               MTCB=&MTCB,LOC=&LOC                                 @01C 01766600
       AGO     .RES080                                                  01800002
.RES070  ANOP                                                           01850002
&NAME    ENQ   &PARAM,SMC=&SMC,UCB=&UCB,MF=&MF,MASID=&MASID,           X01883300
               MTCB=&MTCB,LOC=&LOC                                 @01C 01916600
         AGO   .RES080                                                  01950002
.RES00A  AIF   ('&SMC' EQ '' AND '&RET' EQ '' AND '&UCB' EQ '').RES01A  02000002
         AIF   ('&SMC' EQ '' AND '&RET' EQ '').RES02A                   02050002
         AIF   ('&RET' EQ '' AND '&UCB' EQ '').RES03A                   02100002
         AIF   ('&SMC' EQ '' AND '&UCB' EQ '').RES04A                   02150002
         AIF   ('&UCB' EQ '').RES05A                                    02200002
         AIF   ('&SMC' EQ '').RES06A                                    02250002
         AIF   ('&RET' EQ '').RES07A                                    02300002
&NAME    ENQ   &PARAM,SMC=&SMC,RET=&RET,UCB=&UCB,MF=&MF,MASID=&MASID,  X02333300
               MTCB=&MTCB,ECB=&ECB,LOC=&LOC                        @01C 02366600
         AGO   .RES080                                                  02400002
.RES01A  ANOP                                                           02450002
&NAME    ENQ   &PARAM,ECB=&ECB,MF=&MF,MASID=&MASID,MTCB=&MTCB,         X02483300
               LOC=&LOC                                            @01C 02516600
         AGO   .RES080                                                  02550002
.RES02A  ANOP                                                           02600002
&NAME    ENQ   &PARAM,UCB=&UCB,ECB=&ECB,MF=&MF,MASID=&MASID,           X02633300
               MTCB=&MTCB,LOC=&LOC                                 @01C 02666600
         AGO   .RES080                                                  02700002
.RES03A  ANOP                                                           02750002
&NAME    ENQ   &PARAM,SMC=&SMC,ECB=&ECB,MF=&MF,MASID=&MASID,           X02783300
               MTCB=&MTCB,LOC=&LOC                                 @01C 02816600
         AGO   .RES080                                                  02850002
.RES04A  ANOP                                                           02900002
&NAME    ENQ   &PARAM,RET=&RET,ECB=&ECB,MF=&MF,MASID=&MASID,           X02933300
               MTCB=&MTCB,LOC=&LOC                                 @01C 02966600
         AGO   .RES080                                                  03000002
.RES05A  ANOP                                                           03050002
&NAME    ENQ   &PARAM,SMC=&SMC,RET=&RET,ECB=&ECB,MF=&MF,MASID=&MASID,  X03083300
               MTCB=&MTCB,LOC=&LOC                                 @01C 03116600
         AGO   .RES080                                                  03150002
.RES06A  ANOP                                                           03200002
&NAME    ENQ   &PARAM,RET=&RET,UCB=&UCB,ECB=&ECB,MF=&MF,MASID=&MASID,  X03233300
               MTCB=&MTCB,LOC=&LOC                                 @01C 03266600
       AGO     .RES080                                                  03300002
.RES07A  ANOP                                                           03350002
&NAME    ENQ   &PARAM,SMC=&SMC,UCB=&UCB,ECB=&ECB,MF=&MF,MASID=&MASID,  X03383300
               MTCB=&MTCB,LOC=&LOC                                 @01C 03416600
.RES080  AIF   (NOT(&IHBRES)).RES090                                    03450002
&IHBRES  SETB  0                                                        03500002
         SVC   56                                                       03550002
.RES090  MEND                                                           03600002
