         MACRO                                                          00050000
&NAME    RESTORE &LIST                                                  00100000
.********************************************************************** 00150000
.*                                                                    * 00200000
.*   COPYRIGHT -                                                      * 00250000
.*     5740-XC6                                                       * 00300000
.*     THIS MACRO IS "RESTRICTED MATERIALS OF IBM"                    * 00350000
.*     (C) COPYRIGHT IBM CORP. 1982                                   * 00400000
.*     LICENSED MATERIALS - PROPERTY OF IBM                           * 00450000
.*                                                                    * 00500000
.********************************************************************** 00550000
         AIF   ('&LIST' EQ '').E1                                       00600000
&NAME    IHBINNRA &LIST                     LOAD REG 1                  00650000
         SVC   17                                ISSUE SVC FOR RESTORE  00700000
         MEXIT                                                          00750000
.E1      IHBERMAC 01,150                    LIST ADDR MISSING           00800000
         MEND                                                           00850000
