*%/*                                                           @G860PXT 00050000
         MACRO                                                          00100000
&NAME    RISGNL &FUNCTON,&CPU=,&EP=,&PARM=                              00150000
.*                                                             @G860PXT 00200000
.**************************************************************@G860PXT 00250000
.*                                                             @G860PXT 00300000
.* MACRO-NAME = RISGNL                                         @G860PXT 00350000
.*                                                             @G860PXT 00400000
.* DESCRIPTIVE-NAME = REMOTE IMMEDIATE SIGNAL                  @G860PXT 00450000
.*                                                             @G860PXT 00500000
.* COPYRIGHT = 5740-XC6 COPYRIGHT IBM CORP, 1981,              @G860PXT 00550000
.*             LICENSED MATERIAL-PROGRAM, PROPERTY OF IBM,     @G860PXT 00600000
.*             REFER TO COPYRIGHT INSTRUCTION FORM NUMBER      @G860PXT 00650000
.*             G120-2083                                       @G860PXT 00700000
.*                                                             @G860PXT 00750000
.* STATUS = OS/VS2 HBB2102                                     @G860PXT 00800000
.*                                                             @G860PXT 00850000
.* FUNCTION = CALL THE REMOTE IMMEDIATE SERVICE ROUTINE TO     @G860PXT 00900000
.*            ISSUE AN EMERGENCY SIGNAL INTERRUPT TO THE       @G860PXT 00950000
.*            SPECIFIED PROCESSOR.                             @G860PXT 01000000
.*                                                             @G860PXT 01050000
.* CHANGE-ACTIVITY = @G860PXT - HBB2102 SUPPORT                @G860PXT 01100000
.*                                                             @G860PXT 01150000
.**************************************************************@G860PXT 01200000
.*                                                             @G860PXT 01300000
*        MACDATE = 03/02/81                                    @G860PXT 01350000
.*                                                             @G860PXT 01400000
         GBLC  &MESSAGE                                                 01450000
         GBLC  &TYPE                                                    01500000
         AIF   ('&FUNCTON' NE '').PARLEL                                01550000
         IHBERMAC 24                                                    01600000
         MEXIT                                                          01650000
.PARLEL  AIF   ('&FUNCTON' NE 'PARALLEL').SERIAL                        01700000
&NAME    LA    0,128(0,0)              LOADS X'80', PARALLEL INDICATOR  01750000
         SLL   0,24(0)                 AND SHIFTS INTO HIGH ORDER BYTE  01800000
         AGO   .PCCAADR                                                 01850000
.SERIAL  AIF   ('&FUNCTON' NE 'SERIAL').ERR1                            01900000
&NAME    LA    0,64(0,0)               LOADS X'40', SERIAL INDICATOR    01950000
         SLL   0,24(0)                 AND SHIFTS INTO HIGH ORDER BYTE  02000000
         AGO   .PCCAADR                                                 02050000
.ERR1    ANOP                                                           02100000
         IHBERMAC 1001,FUNCTION,&FUNCTON                                02150000
         MEXIT                                                          02200000
.PCCAADR AIF   ('&CPU' EQ '(1)').EPADDR1                                02250000
         AIF   ('&CPU' NE '').EPADDR                                    02300000
         IHBERMAC 1006,CPU                                              02350000
         MEXIT                                                          02400000
.EPADDR  ANOP                                                           02450000
         AIF   ('&CPU'(1,1) EQ '(').ERREG1                              02500000
         LA    1,&CPU                  PHYSICAL CCA ADDRESS             02550000
.EPADDR1 ANOP                                                           02600000
         AIF   ('&EP' EQ '(12)').PARMAD1                                02650000
         AIF   ('&EP' NE '').PARMADR                                    02700000
         IHBERMAC 1006,EP                                               02750000
         MEXIT                                                          02800000
.PARMADR ANOP                                                           02850000
         AIF   ('&EP'(1,1) EQ '(').ERREG2                               02900000
         LA    12,&EP                  RECEIVING RTNS ENTRY POINT       02950000
.PARMAD1 ANOP                                                           03000000
         AIF   ('&PARM' EQ '(11)').MNLCDE                               03050000
         AIF   ('&PARM' NE '').LACDE                                    03100000
         LA    11,0(0,0)                                                03150000
         AGO   .MNLCDE                                                  03200000
.ERREG1  ANOP                                                           03250000
&TYPE    SETC  'CPU'                                                    03300000
         AGO   .ERREG                                                   03350000
.ERREG2  ANOP                                                           03400000
&TYPE    SETC  'EP'                                                     03450000
         AGO   .ERREG                                                   03500000
.ERREG3  ANOP                                                           03550000
&TYPE    SETC  'PARM'                                                   03600000
.ERREG   ANOP                                                           03650000
.*       IHB280 REGISTER NOTATION INVALID WITH XXX                      03700000
&MESSAGE SETC  'REGISTER NOTATION'                                      03750000
         IHBERMAC 1020,&MESSAGE,&TYPE                                   03800000
         MEXIT                                                          03850000
.LACDE   ANOP                                                           03900000
         AIF   ('&PARM'(1,1) EQ '(').ERREG3                             03950000
         L     11,&PARM       PARAMETER                                 04000000
.MNLCDE  ANOP                                                           04050000
         L     14,CVTPTR(0,0)          CVT ADDRESS                      04100000
         L     15,CVTIPCRI-CVT(0,14)   IEAVERI ENTRY POINT ADDRESS      04150000
         BALR  14,15                                                    04200000
         MEND                                                           04250000
* */                                                                    04300000
* RISGNL: MACRO KEYS(CPU,EP,PARM);                                      04350000
* ANS('?'||MACLABEL||'RISGNLP '||MACLIST||MACKEYS||'; ');               04400000
* %END;                                                                 04450000
