*%/*                                                                    00025000
         MACRO                                                          00050000
&NAME    RPSGNL &FUNCTON,&CPU=                                          00100000
.*                                                                      00150000
.********************************************************************** 00200000
.*                                                                    * 00250000
.* MACRO-NAME = RPSGNL                                                * 00300000
.*                                                                    * 00350000
.* DESCRIPTIVE-NAME = REMOTE PENDABLE SIGNAL                          * 00400000
.*                                                                    * 00450000
.* PROPRIETARY STATEMENT =                                        @D1C* 00500000
.*   LICENSED MATERIALS - PROPERTY OF IBM                             * 00658000
.*   THIS MACRO IS "RESTRICTED MATERIALS OF IBM"                      * 00668500
.*   5695-047 (C) COPYRIGHT IBM CORP. 1981, 1990                      * 00679000
.*   SEE COPYRIGHT INSTRUCTIONS                                       * 00689500
.*                                                                    * 00700000
.* STATUS = HBB4410                                               @D1C* 00750000
.*                                                                    * 00800000
.* FUNCTION = CALL THE REMOTE PENDABLE SERVICE ROUTINE TO ISSUE       * 00850000
.*            AN EXTERNAL CALL SIGP TO THE SPECIFIED PROCESSOR        * 00900000
.*                                                                    * 00950000
.* CHANGE-ACTIVITY = @G860PXT - HBB2102 SUPPORT                       * 01000000
.*    $D1=DEO0196 HBB4410 890717 PD16Q4: ADD STOPCP                   * 01025000
.*                                                                    * 01050000
.********************************************************************** 01100000
.* A-000000-999999                                             @G860PXT 01150000
.*                                                                      01200000
*        MACDATE = 07/17/89                                       @D1C  01250000
.*                                                                      01300000
         LCLC  &MESSAGE           IHBERMAC MESSAGE OPERAND              01350000
         LCLC  &CODE              FUNCTION CODE                         01400000
.*                                                                      01450000
         AIF   ('&NAME' EQ '').CONT                                     01500000
&NAME    DS    0H                                                       01550000
.CONT    ANOP                                                           01600000
.*                                                                      01650000
.*   THE CPU OPERAND IS REQUIRED.  CHECK IF IT IS SPECIFIED             01700000
.*   AND THAT IS HAS CORRECT SYNTAX.                                    01750000
.*                                                                      01800000
         AIF   ('&CPU' EQ '').NOCPU  IS CPU OPERAND ABSENT?             01850000
         AIF   ('&CPU' EQ '(1)').CHKFUN  CPU OPERAND IN REGISTER 1?     01900000
         AIF   ('&CPU'(1,1) EQ '(').INVCPU CPU OPERAND IN ANOTHER REG?  01950000
.*                                                                      02000000
.*   NOW CHECK THE FUNCTION OPERAND.  IT IS REQUIRED.                   02050000
.*                                                                      02100000
.CHKFUN  ANOP                                                           02150000
         AIF   ('&FUNCTON' EQ '').NOFUN  IS FUNCTION OPERAND ABSENT?    02200000
.*                                                                      02250000
&CODE    SETC  '800'              SET SWITCH FUNCTION CODE              02300000
         AIF   ('&FUNCTON' EQ 'SWITCH').LINKAGE                         02350000
&CODE    SETC  '200'              SET RQCHECK FUNCTION CODE             02400000
         AIF   ('&FUNCTON' EQ 'RQCHECK').LINKAGE                        02450000
&CODE    SETC  '100'              SET GTFCRM FUNCTION CODE              02500000
         AIF   ('&FUNCTON' EQ 'GTFCRM').LINKAGE                         02550000
&CODE    SETC  '040'              SET MODE FUNCTION CODE                02600000
         AIF   ('&FUNCTON' EQ 'MODE').LINKAGE                           02650000
&CODE    SETC  '020'              SET STOPCP FUNCTION CODE         @D1A 02666600
         AIF   ('&FUNCTON' EQ 'STOPCP').LINKAGE                    @D1A 02683200
&CODE    SETC  '010'              SET MEMORY SWITCH FUNCTION CODE       02700000
         AIF   ('&FUNCTON' EQ 'MEMSWT').LINKAGE                         02750000
         AGO   .INVFUNC           INVALID FUNCTION, GO ISSUE MNOTE      02800000
.*                                                                      02850000
.LINKAGE ANOP                                                           02900000
         LA    0,X'&CODE'              SET FUNCTION CODE                02950000
         SLL   0,20                    SHIFT CODE INTO HIGH ORDER BYTE  03000000
.*                                                                      03050000
         AIF   ('&CPU' EQ '(1)').GENCALL  CPU PARM PRELOADED?           03100000
         LA    1,&CPU                  LOAD PCCA ADDRESS                03150000
.*                                                                      03200000
.GENCALL ANOP                                                           03250000
         L     15,CVTPTR(0,0)          GET CVT ADDRESS                  03300000
         L     15,CVTIPCRP-CVT(0,15)   IEAVERP ENTRY POINT              03350000
         BALR  14,15                   ENTER IEAVERP AND EST RETURN     03400000
         MEXIT                                                          03450000
.*                                                                      03500000
.NOCPU   ANOP                                                           03550000
.* IHB001 CPU OPERAND REQUIRED, NOT SPECIFIED                           03600000
         IHBERMAC 1006,CPU                                              03650000
         MEXIT                                                          03700000
.*                                                                      03750000
.INVCPU  ANOP                                                           03800000
.* IHB249 INVALID REGISTER ON CPU PARAMETER SPECIFIED                   03850000
&MESSAGE SETC  'REGISTER ON CPU'                                        03900000
         IHBERMAC 1014,&MESSAGE                                         03950000
         MEXIT                                                          04000000
.*                                                                      04050000
.NOFUN   ANOP                                                           04100000
.* IHB004 REQUIRED OPERAND(S) NOT SPECIFIED                             04150000
         IHBERMAC 24                                                    04200000
         MEXIT                                                          04250000
.*                                                                      04300000
.INVFUNC ANOP                                                           04350000
.* IHB002 INVALID FUNCTION OPERAND SPECIFIED-&FUNCTON                   04400000
         IHBERMAC 1001,FUNCTION,&FUNCTON                                04450000
         MEXIT                                                          04500000
         MEND                                                           04550000
*  */                                                                   04600000
* RPSGNL: MACRO KEYS(CPU);                                              04650000
* ANS('?'||MACLABEL||'RPSGNLP '||MACLIST||MACKEYS||'; ');               04700000
*%END;                                                                  04750000
