         MACRO                                                          00050000
&NAME    SCHEDUL7  &SRB=,&SCOPE=LOCAL,&LLOCK=,&FRR=,&DISABLE,&CLEAR=,  X00100000
               &COMPAT=NO                                               00133300
.******************************************************************     00166600
.*                                                                      00200000
.*01* COPYRIGHT =                                                  @01C 00237500
.*             5740-XC6                                                 00275000
.*             CONTAINS RESTRICTED MATERIALS OF IBM                     00312500
.*             (C) COPYRIGHT IBM CORP. 1977,1986                        00350000
.*             LICENSED MATERIALS - PROPERTY OF IBM                     00387500
.*             REFER TO COPYRIGHT INSTRUCTIONS                          00425000
.*             FORM NUMBER G120-2083.                                   00462500
.*                                                                      00500000
.*01* STATUS = OS/VS2 JBB2220                                      @01C 00550000
.*                                                                      00600000
.*01* CHANGE ACTIVITY =                                                 00616600
.*  $H1=ADVPROC3 JBB1356  052783  PD162M:  CPUIDS GREATER THAN X'03'    00633200
.*  $01=OZ89382  JBB1356  062585  PD16H5:  FIX DOWNWARD AND UPWARD      00649800
.*                                         INCOMPATIBILITY AND CHANGE   00666400
.*                                         COMPAT DEFAULT TO NO.        00683000
.*                                                                      00700000
.******************************************************************     00750000
         LCLA  &YBIT,&NBIT                                              00850000
         LCLC  &RB                                                      00900000
&YBIT    SETA  0                                                        00950000
&NBIT    SETA  255                                                      01000000
*        MACDATE   06/25/1985                                      @01C 01050000
.*********************************************************************  01100000
.*                                                                   *  01150000
.*  INSURE THAT REQUIRED KEY WORDS ARE SPECIFIED CORRECTLY, ISSUE    *  01200000
.*  MNOTE FOR ANY INVALID KEY WORDS.                                 *  01250000
.*                                                                   *  01300000
.*********************************************************************  01350000
         AIF   ('&SRB(1)' EQ '').SRBERR1  SRB NOT SPECIFIED             01400000
         AIF   ('&SRB'(1,1) NE '(').SETSRB   SRB NOT A REGISTER         01450000
&RB      SETC  '&SRB(1)'                  SET SRB REGISTER VALUE        01500000
         AGO   .CHKM                                                    01550000
.SETSRB  ANOP                                                           01600000
&RB      SETC  '1'                        SET SRB ADDRESS TO 1          01650000
.*********************************************************************  01700000
.* PROVIDE THE COMPATABILITY EXPANSIONS ONLY IF REQUESTED.              01750000
.*********************************************************************  01850000
.CHKM    AIF   ('&COMPAT' NE 'YES').CHKLL                          @01C 01883300
         AIF   ('&LLOCK' EQ '' AND '&FRR' EQ '' AND '&DISABLE' EQ ''   X01916600
               ).COMPAT                    GO TO COMPATIBILITY RTN @01A 01949900
         AGO   .INCOM                      INVALID KW WITH COMPAT  @01A 01983200
.CHKLL   ANOP                                                      @01A 02016500
         AIF   ('&LLOCK' EQ '').SKPLL                                   02050000
         AIF   ('&LLOCK' EQ 'NO').SETNL    SET LOCAL LOCK NO BIT        02100000
         AIF   ('&LLOCK' NE 'YES').LLERR   MNOTE FOR INVALID OPTION     02150000
&YBIT    SETA  128                         INDICATE LL REQUESTED        02200000
         AGO   .SKPLL                                                   02250000
.SETNL   ANOP                                                           02300000
&NBIT    SETA  (&NBIT-128)                                              02350000
.SKPLL   ANOP                                                           02400000
         AIF   ('&CLEAR' NE '').CLRNOTE    CLEAR NOLONGER VALID         02450000
.CHKFRR  ANOP                              RETURN PT FROM MNOTE         02500000
         AIF   ('&FRR' EQ '').SKPFRR       SKIP UPDATE IF NULL          02550000
         AIF   ('&FRR' EQ 'NO').NOFRR      SET NO BIT IF NO SPECIFIED   02600000
         AIF   ('&FRR' NE 'YES').FRRERR    MNOTE FOR INVALID OPTION     02650000
&YBIT    SETA  (&YBIT+32)                  INDICATE FRR SPECIFIED       02700000
         AGO   .SKPFRR                                                  02750000
.NOFRR   ANOP                                                           02800000
&NBIT    SETA  (&NBIT-32)                  RESET FRR REQUESTED FLAG     02850000
.SKPFRR  ANOP                                                           02900000
         AIF   ('&DISABLE' EQ '').OK1                                   02950000
         AIF   ('&DISABLE' NE 'DISABLED').DISERR INVALID DISABLED OPT   03000000
.OK1     AIF   ('&SCOPE' EQ 'GLOBAL').GLOBAL  GLOBAL SCHEDULE RTN       03050000
         AIF   ('&SCOPE' NE 'LOCAL').SCPERR   MNOTE FOR INVALID SCOPE   03100000
         AIF   ('&DISABLE' NE '').DIS1    CHECK IF DISABLED IS SPEC     03150000
.*********************************************************************  03200000
.*  THIS IS THE LOCAL SCHEDULE EXPANSION ROUTINE                        03250000
.*********************************************************************  03300000
&NAME    L     15,X'B44'(0,0)            ENABLED ENTRY POINT       @H1C 03333300
.*                                       ADDRESS (PSALSCH1)        @01A 03366600
         AGO   .SKP2                                                    03400000
.DIS1    ANOP                                                           03450000
&NAME    L     15,X'B48'(0,0)            DISABLED ENTRY POINT      @H1C 03483300
.*                                       ADDRESS (PSALSCH2)        @01A 03516600
.SKP2    AIF   ('&SRB'(1,1) EQ '(').OK2  OK IF REG SUPPLIED             03550000
         LA    1,&SRB                    LOAD ADDRESS OF SRB            03600000
.OK2     AIF   (&YBIT EQ 0).SKPOI        SKIP OI IF NO OPTIONS          03650000
         OI    SRBFLGS-SRB(&RB),&YBIT    SET LL/FRR FLAG BITS           03700000
.SKPOI   AIF   (&NBIT EQ 255).SKPNI      SKIP NI IF NO NOT SPECIFIED    03750000
         NI    SRBFLGS-SRB(&RB),&NBIT    RESET LL/FRR FLAG BITS         03800000
.SKPNI   AIF   ('&RB' EQ '1').SRBOK                                     03850000
         LR    1,&RB                     COPY SRB ADDRESS               03900000
.SRBOK   BALR  0,15                      LINK TO SCHEDULE ROUTINE       03950000
         MEXIT                                                          04000000
.*********************************************************************  04050000
.*  THIS IS THE GLOBAL SCHEDULE EXPANSION ROUTINE                       04100000
.*********************************************************************  04150000
.GLOBAL  ANOP                                                           04200000
&NAME    L     15,X'B4C'(0,0)            LOAD SVT ADDRESS (PSASVT) @01C 04250000
         AIF   ('&SRB'(1,1) EQ '(').OK3  OF IF REG SPECIFIED            04300000
         LA    1,&SRB                    LOAD ADDRESS OF SRB            04350000
.OK3     AIF   (&YBIT EQ 0).SKPOI1       SKIP OI IF NO OPTIONS          04400000
         OI    SRBFLGS-SRB(&RB),&YBIT    SET SRB FLAGS                  04450000
.SKPOI1  AIF   (&NBIT EQ 255).SKPNI1     SKIP RESET IF NO SPECIFIED     04500000
         NI    SRBFLGS-SRB(&RB),&NBIT    RESET SRB FLAGS                04550000
.SKPNI1  L     0,X'20'(0,15)             LOAD GSMQ HEADER (SVTGSMQ)@01C 04600000
         ST    0,SRBFLNK-SRB(0,&RB)      UPDATE SRB LINK FIELD          04650000
         CS    0,&RB,X'24'(15)           ADD SRB TO QUEUE (SVTGSPL)@01C 04675000
.* THIS CS ONTO THE GSPL WILL WORK ONLY IF THE GSMQ AND GSPL QUEUES     04700000
.* ARE BOTH EMPTY, OTHERWISE THE SRB WILL BE ADDED TO THE GSMQ BELOW.   04725000
         BE    *+20                      GO CHECK FOR WAITING PROCESSOR 04750000
         L     0,X'20'(0,15)             LOAD GSMQ HEADER (SVTGSMQ)@01C 04800000
         ST    0,SRBFLNK-SRB(0,&RB)      UPDATE SRB LINK FIELD          04850000
         CS    0,&RB,X'20'(15)           ADD SRB TO QUEUE (SVTGSMQ)@01C 04900000
         BNE   *-8                       RETRY IF CS FAILS              04950000
         L     0,X'7C'(0,15)             LOAD WAIT INDICATORS      @01C 04983300
.*                                             (SVTPWAIT)          @01A 05016600
         LTR   0,0                       ANY PROCESSORS IN WAIT?        05050000
.SRBOK1  BZ    *+10                      EXIT IF NONE IN WAIT           05100000
         AIF   ('&DISABLE' NE '').DIS3   SKIP IF DISABLED SPECIFIED     05150000
         L     15,X'04'(0,15)            ENABLED ENTRY (SVTGSCH1)  @01C 05183300
.*                                       POINT ADDRESS             @01A 05216600
         AGO   .SKP4                                                    05250000
.DIS3    L     15,X'08'(0,15)            DISABLED ENTRY (SVTGSCH2) @01C 05283300
.*                                       POINT ADDRESS             @01A 05316600
.SKP4    BALR  0,15                      LINK TO WAIT PROCESSOR RTN     05350000
         MEXIT                                                          05400000
.*********************************************************************  05450000
.*  THIS IS THE COMPATABILITY EXPANSION ROUTINE. IF COMPAT=YES IS       05487500
.*  SPECIFIED, PSA AND SVT FIELDS ARE NOT REFERENCED AND CVT ADDRESSES  05525000
.*  ARE USED INSTEAD. ALSO, WAITING PROCESSORS ARE NOT SIGNALLED.       05562500
.*********************************************************************  05600000
.COMPAT  AIF   ('&SCOPE' EQ 'GLOBAL').COMGL  GO TO COMPAT GLOBAL        05650000
         AIF   ('&SCOPE' NE 'LOCAL').SCPERR  INVALID SCOPE SPECIFIED    05700000
&NAME    L     15,X'10'(0,0)             LOAD CVT ADDRESS (FLCCVT) @01C 05750000
         AIF   ('&SRB'(1,1) EQ '(').OK6                                 05800000
         LA    1,&SRB                    GET ADDRESS OF SRB             05850000
.OK6     AIF   ('&RB' EQ '1').OK4                                       05900000
         LR    1,&RB                                                    05950000
.OK4     L     15,X'3D4'(0,15)           SCHEDULE ENTRY (CVTLSCH)  @01C 05983300
.*                                       POINT ADDRESS             @01A 06016600
         BALR  0,15                      LINK TO SCHEDULE ROUTINE       06050000
         MEXIT                                                          06100000
.COMGL   ANOP       GLOBAL COMPATABILITY EXPANSION                      06150000
&NAME    L     15,X'10'(0,0)             LOAD CVT ADDRESS (FLCCVT) @01C 06200000
         AIF   ('&SRB'(1,1) EQ '(').OK5                                 06250000
         LA    1,&SRB                    ADDRESS OF SRB                 06300000
.OK5     L     15,X'264'(0,15)           GSMQ HEADER ADDR (CVTGSMQ)@01C 06350000
         L     0,0(0,15)                 LOAD GSMQ HEADER VALUE         06400000
         ST    0,SRBFLNK-SRB(0,&RB)      UPDATE SRB LINK FIELD          06450000
         CS    0,&RB,0(15)               ADD SRB TO GSMQ                06500000
         BNE   *-8                       RETRY IF CS FAILS              06550000
         MEXIT                                                          06600000
.SRBERR1 MNOTE 8,'*** SRB ADDRESS NOT SPECIFIED'                        06650000
         MEXIT                                                          06700000
.LLERR   MNOTE 8,'*** INVALID LLOCK OPTION, SPECIFY YES OR NO'          06750000
         MEXIT                                                          06800000
.FRRERR  MNOTE 8,'*** INVALID FRR OPTION, SPECIFY YES OR NO'            06850000
         MNOTE 8,'*** FRR ADDRESS MUST BE IN SRB FIELD SRBFRRA'         06900000
         MEXIT                                                          06950000
.SCPERR  MNOTE 8,'*** INVALID SCOPE OPTION, SPECIFY LOCAL OR GLOBAL'    07000000
         MEXIT                                                          07050000
.DISERR  MNOTE 8,'*** &DISABLE OPTION INVALID'                          07100000
         MEXIT                                                          07150000
.INCOM   MNOTE 8,'*** LLOCK, FRR, OR DISABLE OPTION INVALID WITH COMPAT*07162500
               =YES'                                               @01A 07175000
         MEXIT                                                          07187500
.CLRNOTE MNOTE 0,'*** CLEAR KEYWORD OBSOLETE, FRR PARM AREA ALWAYS CLEAX07200000
               RED'                                                     07250000
         AGO   .CHKFRR                                                  07300000
         MEND                                                           07350000
