*%/*                                                                    00050000
         MACRO                                                          00100000
&NAME    SDUMP &HDR=,&HDRAD=,&DCB=,&ASID=,&ASIDLST=,&ECB=,&SDATA=,     X00150000
               &STORAGE=,&LIST=,&SUMLIST=,&BUFFER=,&QUIESCE=,&BRANCH=, X00200000
               &LISTA=,&TYPE=,&SUMLSTA=,&SUSPEND=,&SUBPLST=,&KEYLIST=, X00250000
               &MF=,&SRB=,                                         @L4CX00283300
               &ID=,&IDAD=,&SYMREC=,&PSWREGS=,&PLISTVER=           @T1C 00316600
.********************************************************************** 00350000
.*   MACRO NAME = SDUMP                                               * 00400000
.*                                                                    * 00450000
.*   DESCRIPTIVE NAME = SDUMP EXECUTABLE MACRO                        * 00500000
.*                                                                    * 00550000
.*   COPYRIGHT =                                                      * 00583300
.*               LICENSED MATERIALS - PROPERTY OF IBM                 * 00750000
.*               THIS MACRO IS "RESTRICTED MATERIALS OF IBM"          * 00787500
.*               5695-047 (C) COPYRIGHT IBM CORP 1980, 1990           * 00825000
.*               SEE COPYRIGHT INSTRUCTIONS                           * 00862500
.*                                                                    * 00900000
.*   STATUS = HBB4420                                                 * 00950000
.*                                                                    * 01000000
.*   FUNCTION = PROVIDES THE INTERFACE BETWEEN THE CALLER AND SVC     * 01050000
.*              DUMP.  LIST AND EXECUTE FORMS EXIST TO GENERATE       * 01100000
.*              THE SDUMP PARAMETER LIST AND PROPER LINKAGE TO THE    * 01150000
.*              SVC DUMP SERVICE.                                     * 01200000
.*                                                                    * 01250000
.*   NOTES = THE PARAMETER LIST GENERATED BY THE STANDARD AND LIST    * 01300000
.*           FORMS OF THIS MACRO IS AT LEAST 40 BYTES IN LENGTH.      * 01350000
.*           IF ANY OF THE NEW JBB1226 PARAMETERS ARE SPECIFIED, THE  * 01400000
.*           PARAMETER LIST LENGTH IS 48 BYTES.                       * 01450000
.*           IF ANY OF THE NEW HBB2102 PARAMETERS ARE SPECIFIED,      * 01500000
.*           THE PARAMETER LIST LENGTH IS 68 BYTES.                   * 01550000
.*                                                                    * 01600000
.*           IF MDUMP OPTIONS ARE SPECIFIED, THE PARAMETER LIST       * 01616600
.*             IS 128 BYTES.                                          * 01633200
.*           IF SDUMPX IS INVOKED, THE PARAMETER LIST IS 112 BYTES.   * 01650000
.*              (OR 128 IF MDUMP OPTIONS ARE SPECIFIED).              * 01675000
.*                                                                    * 01700000
.*   CHANGE ACTIVITY = FIX PROBLEM WITH ECB OPTION 6/22/79    @ZMB0025* 01750000
.*                     OS/VS2 JBB1226:                        @G383P1U* 01800000
.*                     1. SUPPORT FOR NEW KEYWORDS:                   * 01850000
.*                        LISTA,SUMLSTA,TYPE=XMEM             @G383P1U* 01900000
.*                     2. SUPPORT FOR NEW KEYWORD                     * 01950000
.*                        SUSPEND= YES OR NO                          * 02000000
.*                        SUPPORT FOR SDUMP EXITS             @G386P31* 02050000
.*                     3. SUPPORT FOR NEW KEYWORD: TYPE=XMEME @G38AP31* 02100000
.*                     APAR OZ51194 - MF=(E,(1)) ON EXECUTE   @ZA51194* 02150000
.*                        FORM WITH NO OTHER PARAMETERS       @ZA51194* 02200000
.*                        GENERATES AN OR IMMEDIATE.          @ZA51194* 02250000
.*                     OS/VS2 JBB1326:                            @L1A* 02300000
.*                     @L1= RAS JBB1326 810130 PD31:PAGE PROTECT  @L1A* 02350000
.*                     OS/VS2 HBB2102:                        @G860P31* 02400000
.*                     1. SUPPORT ALLNUC, SUBPLST, KEYLIST            * 02450000
.*                     2. ADD RESERVED FIELDS FOR SLIP AND SYSMDUMP   * 02500000
.*                     3. ADD BLOCK COMMENTS TO AID DEBUGGING         * 02550000
.*                     4. SUPPORT SPLEVEL                     @G860P1X* 02600000
.*                     5. ADD TYPE=NOLOCAL PARAMETER TO PREVENT       * 02650000
.*                        SDUMP FROM OBTAINING A LOCAL LOCK.  @ZMC2707* 02700000
.*  FLAG  REASON  RELEASE   DATA  ORIGIN                          @L2A* 02750000
.*  $L2=  RASENH  JBB2220  841119  PD2F: SUPPORT TYPE=FAILRC      @L2A* 02800000
.*  $L3=    AR    HBB3310  850920  PDXB: AR                           * 02850000
.*  $L4=  RTMRAS  HBB3310  860728  PDA8: SLIP SYNCHRONOUS SDV DUMP    * 02875000
.*  $P1= PC40145  HBB3310  860829  PD2F: CORRECT SPELLING IN MESG2E   * 02887500
.*  $P2= PC40810  HBB3310  870312  PDA8: SRB KEYWORD PROCESSING       * 02893700
.*  $T1=  OY21535 JBB2220  881101  PDXB: MDUMP SUPPORT                * 02895800
.*  $T2=  OY21535 HBB3310  881101  PDXB: MDUMP SUPPORT                * 02897900
.*                                                                    * 02900000
.*  OY23383 - WHEN DBCS OPTION IS SPECIFIED, COLUMNS 71 AND   @YA23383* 02910000
.*            72 ARE RECOGNIZED AS EXTENDED CONCATINATION     @YA23383* 02920000
.*            IF THEY CONTAIN LIKE CHARACTERS. CHANGING       @YA23383* 02930000
.*            "XX" IN COLS 71 AND 72 TO "XC".                 @YA23383* 02940000
.*                                                                    * 02942500
.*  $L5=DATA CAPT HBB4420  900000  PDHT: RAPID DATA CAPTURE           * 02945000
.*                                                                    * 02947500
.********************************************************************** 02950000
.*                                                                      03000000
.*       DEFINE SET SYMBOLS                                             03050000
.*                                                                      03100000
         GBLC  &SYSSPLV           SYSTEM/MACRO LIBRARY LEVEL   @G860P1X 03150000
         GBLB  &SDSE3LT      SET IF JBB1226  LIST FORM MACRO  @G383P1U  03200000
         GBLB  &SDSE3EX     SET IF JBB1226 EXECUTE FORM MACRO @G383P1U  03250000
         GBLB  &SDLISTF    LIST FORM WAS PREVIOUSLY SPECIFIED @G383P1U  03300000
         GBLB  &SDSP21L       SET IF HBB2102 LIST FORM MACRO  @G860P31  03350000
         GBLB  &SDSP21E     SET IF HBB2102 EXECUTE FORM MACRO @G860P31  03400000
         GBLC  &SDPLVER     SET ACCORDING TO HIGHEST PLISTVER     @T1A  03425000
         LCLA  &SDFLAG0           SDFLAG0 FIELD OF PARAMETER LIST       03450000
         LCLA  &SDFLAG1           SDFLAG1 FIELD OF PARAMETER LIST       03500000
         LCLA  &SDFLAG2           SDFLAG2 PARAMETER LIST FIELD @G383P1U 03550000
         LCLA  &SDATAF1,&SDATAF2  SDATA FIELD OF PARAMETER LIST         03600000
         LCLA  &SDATAF3           SDATA EXIT FIELDS PARM LIST  @G383P1U 03650000
         LCLA  &SDAT3             SDUSDAT3 FIELD OF PARM LIST      @T1A 03675000
         LCLA  &SDCNTL1           CONTROL FLAGS FOR IDENTIFYING NEW     03700000
.*                                RELEASES AND EXPANDED PARAMETER LIST  03750000
.*                                LENGTHS                      @G860P31 03800000
         LCLA  &SDTYPF1           TYPE FIELD OF PARAMETER LIST @G383P1U 03850000
         LCLA  &CTR1,&CTR2        COUNTERS FOR LOOP CONTROL, INDEX      03900000
         LCLA  &HDRCTR            NUMBER OF PAIRED APOSTROPHES          03950000
         LCLA  &IDCTR             NUMBER OF PAIRED APOSTROPHES     @T1A 03975000
         LCLA  &DISP              DISPLACEMENT FOR STORING ADDRESSES    04000000
         LCLA  &DISP1             DISPLACEMENT FOR STOR LIST@G860P31    04050000
         LCLA  &DISP2             DISPLACEMENT FOR HDR DATA    @G860P31 04100000
         LCLA  &STRCNT            COUNT OF STOR ADDRESSES      @G860P31 04150000
         LCLC  &GNAME             SYMBOLIC NAME-BRANCH AROUND CONSTANTS 04200000
         LCLC  &TEMP              TEMPORARY VARIABLE               @T1A 04225000
         LCLB  &SDDCB             SET IF DCB ADDRESS IS SPECIFIED       04250000
         LCLB  &SDBUFF            SET IF BUFFER IS TO BE DUMPED         04300000
         LCLB  &SDSTOR            SET IF STORAGE OR LIST IS SPECIFIED   04350000
         LCLB  &SDHDR             SET IF HDR OR HDRAD IS SPECIFIED      04400000
         LCLB  &SDECB             SET IF AN ECB ADDRESS IS SUPPLIED     04450000
         LCLB  &SDSRB            SET IF AN SRB ADDRESS IS SUPPLIED @L4A 04475000
         LCLB  &SDASID            SET IF AN ASID IS SPECIFIED           04500000
         LCLB  &SDASIDL           SET IF AN ASIDLIST IS SPECIFIED       04550000
.*                                                             @G33VPHD 04600000
         LCLB  &SDQUIET           SET IF SYSTEM IS TO BE QUIESCED       04650000
         LCLB  &SDBRNCH           SET IF INTERFACE IS BRANCH ENTRY      04700000
         LCLB  &DUMPTYP           ALWAYS SET FOR SVC DUMP               04750000
         LCLB  &SDALPSA           SET IF ALL PSA IN SYSTEM TO BE DUMPED 04800000
         LCLB  &SDPSA             SET IF CURRENT PSA IS TO BE DUMPED    04850000
         LCLB  &SDNUC             SET IF NUCLEUS IS TO BE DUMPED        04900000
         LCLB  &SDSQA             SET IF SQA IS TO BE DUMPED            04950000
         LCLB  &SDLSQA            SET IF LSQA IS TO BE DUMPED           05000000
         LCLB  &SDRGN             SET IF VIRTUAL MEMORY IS TO BE DUMPED 05050000
         LCLB  &SDLPA             SET IF ACTIVE LPA MOD FOR MEMORY REQ  05100000
         LCLB  &SDTRT             SET IF GTF INCORE TRACE BUFFERS  REQ  05150000
         LCLB  &SDCSA             SET IF CSA SUBPOOLS ARE TO BE DUMPED  05200000
         LCLB  &SDSWA             SET IF SWA FOR MEMORY TO BE DUMPED    05250000
.*                                                                      05300000
         LCLB  &SDSUMLT           SET IF SUMLIST SPECIFIED     @G33VPHD 05350000
         LCLB  &SDSMDMP           SET IF SUMDUMP SPECIFIED     @G33VPHD 05400000
         LCLB  &SDNSMDP           SET IF NO SUMDUMP SPECIFIED  @G33VPHD 05450000
         LCLB  &SDNSQA            SET IF NO SQA SPECIFIED      @G33VPHD 05500000
         LCLB  &SDNAPSA           SET IF NOALLPSA IS SPECIFIED @G33VPHD 05550000
         LCLB  &SDNEW             SET IF ENHANCED SVC DUMP     @G33VPHD 05600000
         LCLB  &SDSE3PM         SET IF JBB1226 PARMS SPECIFIED @G383P1U 05650000
         LCLB  &SDGRSQ            SET IF SDATA=GRSQ SPECIFIED  @G383P1U 05700000
.********************************************************************** 05750000
.* FOR EACH NEW SDUMP EXIT, ADD A NEW VARIABLE DEFINED SIMILAR TO       05800000
.* SDGRSQ.                                                     @G386P31 05850000
.********************************************************************** 05900000
         LCLB  &SDLISTA           SET IF LISTA PARM SPECIFIED  @G383P1U 05950000
         LCLB  &SDSMLTA           SET IF SUMLSTA SPECIFIED     @G383P1U 06000000
         LCLB  &SDSPEND           SET IF SUSPEND=YES SPECIFIED @G386P31 06050000
         LCLB  &SDTYPXM           SET IF TYPE=XMEM SPECIFIED   @ZMB0025 06100000
         LCLB  &SDTPXME           SET IF TYPE=XMEME SPECIFIED  @G38AP31 06150000
         LCLB  &SDALLNC           SET IF ALLNUC SPECIFIED      @G860P31 06200000
         LCLB  &SDSPLST           SET IF SUBPLST SPECIFIED     @G860P31 06250000
         LCLB  &SDKYLST           SET IF KEYLIST SPECIFIED     @G860P31 06300000
         LCLB  &SDSP21P           SET IF HBB2102 PARM LIST     @G860P31 06350000
         LCLB  &SDVRSNB           SET IF VERSION NUMBER IN LIST    @T1A 06375000
         LCLB  &SDTYPNL          SET IF TYPE=NOLOCAL SPECIFIED @ZMC2707 06400000
         LCLB  &SDTYPRC           SET IF TYPE=FAILRC SPECIFIED     @L2A 06450000
.* FLAGS FOR MDUMP OPTIONS                                              06455000
         LCLC  &PLVER             PLISTVER                         @T1A 06460000
         LCLB  &SDPREG            SET IF PSWREG SPECIFIED          @T1A 06465000
         LCLB  &SDSYMR            SET IF SYMREC SPECIFIED          @T1A 06470000
         LCLB  &SDID              SET IF ID OR IDAD SPECIFIED      @T1A 06475000
         LCLB  &SDIDAD            SET IF IDAD SPECIFIED            @T1A 06480000
         LCLB  &SDDEFS            SET IF DEFAULTS/DEFS SPECIFIED   @T1A 06485000
         LCLB  &SDNODEF           SET IF NODEFAULTS/NODEFS         @T1A 06490000
         LCLB  &SDIO              SET IF IO SPECIFIED              @T1A 06495000
.*                                                                      06500000
.********************************************************************** 06550000
.* DETERMINE WHAT THE SYSTEM/MACRO LIBRARY IS.  IF IT IS HBB3310,       06600000
.* ISSUE SDUMPX MACRO. IF IT IS HBB2102,                                06650000
.* THEN CONTINUE PROCESSING SDUMP MACRO.  IF IT IS NOT HBB2102, THEN    06700000
.* ISSUE SDUMP7 MACRO, AFTER REMOVING THE SUBPLST AND KEYLIST           06750000
.* PARAMETERS.  NOTE: THE ALLNUC OPTION ON THE SDATA KEYWORD WILL       06800000
.* NOT BE REMOVED.                                             @G860P1X 06850000
.********************************************************************** 06900000
.*                                                                      06950000
         GBLC  &SYSASCE           ASC ENVIRONMENT                  @L3A 07000000
         SYSSTATE TEST            WHAT IS ASC ENVIRONMENT          @L3A 07050000
         AIF ('&SYSASCE' EQ 'P').INVKSDP PRIMARY, PROCESS NORMALLY @L3A 07100000
         MNOTE 0,'*** SDUMPX MACRO SUBSTITUTED FOR SDUMP MACRO BECAUSE X07150000
               ASCENV=AR/ANY SPECIFIED ON PREVIOUSLY ISSUED SYSSTATE MAX07200000
               CRO'                                                @L3A 07250000
&NAME    SDUMPX HDR=&HDR,HDRAD=&HDRAD,DCB=&DCB,ASID=&ASID,             X07300000
               ASIDLST=&ASIDLST,ECB=&ECB,SDATA=&SDATA,                 X07350000
               STORAGE=&STORAGE,LIST=&LIST,SUMLIST=&SUMLIST,           X07400000
               BUFFER=&BUFFER,QUIESCE=&QUIESCE,BRANCH=&BRANCH,         X07450000
               LISTA=&LISTA,TYPE=&TYPE,SUMLSTA=&SUMLSTA,               X07500000
               SUSPEND=&SUSPEND,SUBPLST=&SUBPLST,KEYLIST=&KEYLIST,     X07550000
               ID=&ID,IDAD=&IDAD,SYMREC=&SYMREC,PSWREGS=&PSWREGS,      X07583300
               MF=&MF,SRB=&SRB,PLISTVER=&PLISTVER                  @T2C 07616600
         MEXIT                                                     @L3A 07650000
.INVKSDP ANOP                                                      @L3A 07700000
         SPLEVEL TEST              WHAT IS THE SYSTEM LEVEL?   @G860P1X 07750000
         AIF   ('&SYSSPLV' NE '1').INVKSP2 HBB2102, GO PROCESS @G860P1X 07800000
.*                                           NORMALLY          @G860P1X 07850000
.INVKSP1 ANOP                      INVOKE HBB2102 SDUMP7 MACRO @G860P1X 07900000
&NAME    SDUMP7 HDR=&HDR,HDRAD=&HDRAD,DCB=&DCB,ASID=&ASID,     @G860P1XC07950000
               ASIDLST=&ASIDLST,ECB=&ECB,SDATA=&SDATA,         @G860P1XC08000000
               STORAGE=&STORAGE,LIST=&LIST,SUMLIST=&SUMLIST,   @G860P1XC08050000
               BUFFER=&BUFFER,QUIESCE=&QUIESCE,BRANCH=&BRANCH, @G860P1XC08100000
               LISTA=&LISTA,TYPE=&TYPE,SUMLSTA=&SUMLSTA,       @G860P1XC08150000
               SUSPEND=&SUSPEND,MF=&MF                         @G860P1X 08200000
         MEXIT                                                 @G860P1X 08250000
.*                                                                      08300000
.********************************************************************** 08350000
.* IF ANY POSITIONAL PARAMETERS WERE SPECIFIED, THE MACRO IS            08400000
.* SPECIFIED INCORRECTLY AND IS PROBABLY MISSING A SET OF               08450000
.* PARENTHESIS.                                                @G860P1X 08500000
.********************************************************************** 08550000
.*                                                                      08600000
.INVKSP2 ANOP                                                  @G860P1X 08650000
         AIF  ('&SYSLIST(1)' NE '').MESG1A                     @G860P1X 08700000
.*                                                                      08750000
.********************************************************************** 08800000
.*                                                                      08850000
.*         SYNTAX CHECK FOR MUTUALLY EXCLUSIVE OPTIONS                  08900000
.*                                                             @G860P31 08950000
.********************************************************************** 09000000
.*                                                                      09050000
         AIF   ('&HDR' NE '' AND '&HDRAD' NE '').MESG2A     MUTUALLY    09100000
         AIF   ('&ID' NE '' AND '&IDAD' NE '').MESG2F              @T1A 09125000
         AIF   ('&STORAGE' NE '' AND '&LIST' NE '').MESG2B   EXCLUSIVE  09150000
.*       TEST STORAGE AND LISTA - MUTUALLY EXCLUSIVE           @G383P1U 09200000
         AIF   ('&STORAGE' NE '' AND '&LISTA' NE '').MESG2C    @G383P1U 09250000
.*       TEST LIST AND LISTA - MUTUALLY EXCLUSIVE              @G383P1U 09300000
         AIF   ('&LIST' NE '' AND '&LISTA' NE '').MESG2D       @G383P1U 09350000
.*       TEST SUMLIST AND SUMLSTA - MUTUALLY EXCLUSIVE         @G383P1U 09400000
         AIF   ('&SUMLIST' NE '' AND '&SUMLSTA' NE '').MESG2E  @G383P1U 09450000
.*       TEST ASID AND ASIDLST - MUTUALLY EXCLUSIVE            @G386P31 09500000
         AIF   ('&ASID' NE '' AND '&ASIDLST' NE '').MESG10     @G383P1U 09550000
.*                                                                      09600000
.********************************************************************** 09650000
.*                                                                      09700000
.*    PARSE THE HDR PARAMETER FOR INVALID LENGTH AFTER ACCOUNTING       09750000
.*    FOR STARTING, ENDING, AND PAIRED APOSTROPHES.                     09800000
.*                                                             @G860P31 09850000
.********************************************************************** 09900000
.*                                                                      09950000
         AIF   ('&HDR' EQ '').SD3I          HDR SPECIFIED          @T1C 10000000
         AIF   ('&HDR'(1,1) NE '''').MESG9  IS FIRST CHAR APOSTROPHE    10050000
&CTR1    SETA  K'&HDR-1                     LENGTH OF USER DATA +1      10100000
         AIF   (&CTR1 LT 2).MESG9A          INVALID HDR SPECIFICATION   10150000
.*                                                            @ZMC0399  10200000
&HDRCTR  SETA  0                            NUMBER OF PAIRED APOSTROHES 10250000
&CTR2    SETA  2                            INDEX FIRST CHAR-USER DATA  10300000
.SDLOOP  ANOP                                                           10350000
         AIF   (&CTR2 GE &CTR1).SD2              END OF SCAN            10400000
         AIF   ('&HDR'(&CTR2,2) EQ '''''').SD1   PAIRED APOSTROPHES     10450000
&CTR2    SETA  &CTR2+1                           UPDATE INDEX BY 1      10500000
         AGO   .SDLOOP                           CONTINUE LOOP          10550000
.SD1     ANOP                                                           10600000
&HDRCTR  SETA  &HDRCTR+1                    ONE MORE PAIRED APOSTROPHES 10650000
&CTR2    SETA  &CTR2+2                      UPDATE INDEX BY 2           10700000
         AGO   .SDLOOP                      CONTINUE LOOP               10750000
.SD2     ANOP                                                           10800000
&CTR1    SETA  K'&HDR-2-&HDRCTR             LENGTH OF USER DATA         10850000
         AIF   (&CTR1 GT 100).MESG8         USER DATA TOO LONG          10900000
.********************************************************************** 11000000
.*                                                                      11050000
.*    PARSE THE ID PARAMETER FOR INVALID LENGTH AFTER ACCOUNTING        11051700
.*    FOR STARTING, ENDING, AND PAIRED APOSTROPHES.                     11053400
.*                                                                 @T1A 11055100
.********************************************************************** 11056800
.*                                                                      11058500
.SD3I    AIF   ('&ID' EQ '').SD3            ID SPECIFIED           @T1A 11060200
         AIF   ('&ID'(1,1) NE '''').MESG9I  FIRST CHAR APOSTROPHE  @T1A 11061900
&CTR1    SETA  K'&ID-1                      LENGTH+1               @T1A 11063600
         AIF   (&CTR1 LT 2).MESG9AI         INVALID ID SPECIFICATION   *11065300
                                                                   @T1A 11067000
&IDCTR   SETA  0                            PAIRED APOSTROPHES     @T1A 11068700
&CTR2    SETA  2                            INDEX FIRST CHAR       @T1P 11070400
.SDLOOPI ANOP                                                      @T1A 11072100
         AIF   (&CTR2 GE &CTR1).SD2I             END OF SCAN       @T1A 11073800
         AIF   ('&ID'(&CTR2,2) EQ '''''').SD1I   PAIRED            @T1A 11075500
&CTR2    SETA  &CTR2+1                           UPDATE INDEX BY 1 @T1A 11077200
         AGO   .SDLOOPI                          CONTINUE LOOP     @T1A 11078900
.SD1I    ANOP                                                      @T1A 11080600
&IDCTR   SETA  &IDCTR+1                     ONE MORE               @T1A 11082300
&CTR2    SETA  &CTR2+2                      UPDATE INDEX BY 2      @T1P 11084000
         AGO   .SDLOOPI                     CONTINUE LOOP          @T1A 11085700
.SD2I    ANOP                                                      @T1A 11087400
&CTR1    SETA  K'&ID-2-&IDCTR               LENGTH OF USER DATA    @T1A 11089100
         AIF   (&CTR1 GT 50).MESG8I         USER DATA TOO LONG     @T1A 11090800
.*                                                                      11092500
.********************************************************************** 11094200
.*                                                                      11095900
.*    CHECK FOR INVALID PARAMETERS SPECIFIED WITH MF=L                  11100000
.*                                                             @G860P31 11150000
.********************************************************************** 11200000
.*                                                                      11250000
.SD3     AIF   ('&MF' NE 'L').SD5           IS MF STANDARD OR EXECUTE   11300000
         AIF   ('&ASID' NE '').MESG5A       ASID INVALID W/MF=L         11350000
         AIF   ('&ECB' NE '').MESG5B        ECB INVALID W/MF=L          11400000
         AIF   ('&SRB' NE '').MESG5F        SRB INVALID W/MF=L     @L4A 11425000
         AIF   ('&BRANCH' NE '').MESG5C     BRANCH INVALID W/MF=L       11450000
         AIF   ('&ASIDLST' NE '').MESG5D   ASID INV W/MF=L     @G33VPHD 11500000
.*                                                                      11550000
.********************************************************************** 11600000
.*                                                                      11650000
.*  CHECK FOR VALID OPERANDS (YES OR NO) ON BUFFER, BRANCH, AND QUIESCE 11700000
.*                                                             @G860P31 11750000
.********************************************************************** 11800000
.*                                                                      11850000
.SD5     AIF   ('&BUFFER' EQ '').SD9        IS BUFFER SPECIFIED         11900000
.*                                                             @G33VPHD 11950000
         AIF   ('&BUFFER' NE 'YES' AND '&BUFFER' NE 'NO').MESG4B        12000000
.*                                                             @G33VPHD 12050000
.SD9     AIF   ('&BRANCH' EQ '').SD11       IS BRANCH SPECIFIED         12100000
         AIF   ('&BRANCH' NE 'YES' AND '&BRANCH' NE 'NO').MESG4C        12150000
.SD11    AIF   ('&QUIESCE' EQ '').SD13      IS QUIESCE SPECIFIED        12200000
         AIF   ('&QUIESCE' NE 'YES' AND '&QUIESCE' NE 'NO').MESG4D      12250000
.*                                                                      12300000
.********************************************************************** 12350000
.*                                                                      12400000
.*  CHECK FOR AN EVEN NUMBER OF STORAGE RANGES.                         12450000
.*                                                             @G860P31 12500000
.********************************************************************** 12550000
.*                                                                      12600000
.SD13    AIF   ('&STORAGE' EQ '').SD15      IS STORAGE SPECIFIED        12650000
&CTR1    SETA  N'&STORAGE/2                 NUMBER OF ADDRESS PAIRS     12700000
&CTR2    SETA  (N'&STORAGE-1)/2             NUMBER OF PAIRS MINUS 1     12750000
         AIF   (&CTR1 EQ &CTR2).MESG6       ODD NUMBER OF ADDRESSES     12800000
.SD15    ANOP                                                           12850000
.*                                                                      12900000
.********************************************************************** 12950000
.*                                                                      13000000
.*       SDFLAG0 PROCESSING                                             13050000
.*                                                             @G860P31 13100000
.********************************************************************** 13150000
.*                                                                      13200000
&SDDCB   SETB  ('&DCB' NE '')                IF DCB SPECIFIED           13250000
&SDBUFF  SETB  ('&BUFFER' EQ 'YES')          IF BUFFER TO BE DUMPED     13300000
&SDSTOR  SETB  ('&STORAGE' NE '' OR '&LIST' NE '')    STORAGE ADDR LIST 13350000
&SDHDR   SETB  ('&HDR' NE '' OR '&HDRAD' NE '')       USER DATA         13400000
         AIF   ('&ECB' NE '' AND '&SRB' NE '').MESG13B SRB AND ECB ARE  13416600
.*             MUTUALLY EXCLUSIVE                                  @L4A 13433200
&SDECB   SETB  ('&ECB' NE '')                IF ECB SPECIFIED           13450000
&SDSRB   SETB  ('&SRB' NE '')                IF SRB SPECIFIED      @L4A 13475000
&SDASID  SETB  ('&ASID' NE '')               IF ASID SPECIFIED          13500000
&SDQUIET SETB  ('&QUIESCE' NE 'NO')          IF SYSTEM TO BE QUIESCED   13550000
.*             SDQUIET IS SET FOR QUIESCE=YES OR DEFAULTED TO YES       13600000
.*             THE DEFAULT ONLY APPLIES TO THE LIST AND STANDARD FORM,  13650000
.*             AND MUST BE COMPENSATED FOR ON THE EXECUTE FORM.         13700000
&SDBRNCH SETB  ('&BRANCH' EQ 'YES')          IF LINKAGE BY BRANCH ENTRY 13750000
&SDFLAG0 SETA  128*&SDDCB+64*&SDBUFF+32*&SDSTOR+16*&SDHDR+8*&SDECB+4*&SX13800000
               DASID+2*&SDQUIET+1*&SDBRNCH                              13850000
.*                                                                      13900000
.********************************************************************** 13950000
.*                                                                      14000000
.*       SDFLAG1 PROCESSING                                             14050000
.*                                                             @G860P31 14100000
.********************************************************************** 14150000
.*                                                                      14200000
&DUMPTYP SETB  1                  ALWAYS ON FOR SVC DUMP                14250000
&SDNEW   SETB  1                  ALWAYS SET TO 1 FOR NEW SDUMP MACRO   14300000
.*                                                             @G33VPHD 14350000
&SDASIDL SETB  ('&ASIDLST' NE '') IF ASIDLIST WAS SPECIFIED             14400000
.*                                                             @G33VPHD 14450000
&SDSUMLT SETB  ('&SUMLIST' NE '') IF SUMLIST WAS SPECIFIED              14500000
.*                                                             @G33VPHD 14550000
&SDFLAG1 SETA  128*&DUMPTYP+32*&SDNEW+16*&SDASIDL+8*&SDSUMLT            14600000
.*                                                                      14650000
.********************************************************************** 14700000
.*                                                                      14750000
.*       SDFLAG2 PROCESSING                                             14800000
.*                                                             @G860P31 14850000
.********************************************************************** 14900000
.*                                                                      14950000
&SDLISTA SETB  ('&LISTA' NE '')   SET IF LISTA IS SPECIFIED    @G383P1U 15000000
&SDSMLTA SETB  ('&SUMLSTA' NE '') SET IF SUMLSTA SPECIFED      @G383P1U 15050000
&SDFLAG2 SETA  128*&SDLISTA+64*&SDSMLTA                        @G383P1U 15100000
.*                                                                      15150000
.********************************************************************** 15200000
.*                                                                      15250000
.*       SDCNTL1 PROCESSING                                             15253800
.*                                                                 @T1A 15257600
.********************************************************************** 15261400