*%/*                                                                    00050000
         MACRO                                                          00100000
&NAME    SDUMPX &HDR=,&HDRAD=,&DCB=,&ASID=,&ASIDLST=,&ECB=,&SDATA=,    X00150000
               &STORAGE=,&LIST=,&SUMLIST=,&BUFFER=,&QUIESCE=,&BRANCH=, X00200000
               &LISTA=,&TYPE=,&SUMLSTA=,&SUSPEND=,&SUBPLST=,&KEYLIST=, X00250000
               &MF=,&SRB=,&SUMLSTL=,&LISTD=,&STRLIST=,                 X00283300
               &INTOKEN=,&REMOTE=,&PROBDESC=,                          X00299900
               &JOBLIST=,&DSPLIST=,                                    X00316500
               &ID=,&IDAD=,&SYMREC=,&PSWREGS=,&PLISTVER=           @LCC 00333100
.********************************************************************** 00350000
.*   MACRO NAME = SDUMPX                                              * 00400000
.*                                                                    * 00450000
.*   DESCRIPTIVE NAME = SDUMPX EXECUTABLE MACRO                       * 00500000
.*                                                                    * 00550000
.*   STATUS = JBB6607                                             @LEC* 00600000
.*                                                                    * 00650000
.*   COPYRIGHT =                                                      * 00683300
.*               LICENSED MATERIALS - PROPERTY OF IBM                 * 00716600
.*               THIS MACRO IS "RESTRICTED MATERIALS OF IBM"          * 00750000
.*               5647-A01 (C) COPYRIGHT IBM CORP 1980, 1999       @LEC* 00800000
.*                                                                    * 00887500
.*   EXTERNAL CLASSIFICATION:  GUPI                               @LEA* 00925000
.*   END OF EXTERNAL CLASSIFICATION:                              @LEA* 00962500
.*                                                                    * 01000000
.*   FUNCTION = PROVIDES THE INTERFACE BETWEEN THE CALLER AND SVC     * 01050000
.*              DUMP.  LIST AND EXECUTE FORMS EXIST TO GENERATE       * 01100000
.*              THE SDUMPX PARAMETER LIST AND PROPER LINKAGE TO THE   * 01150000
.*              SVC DUMP SERVICE.                                     * 01200000
.*                                                                    * 01250000
.*   NOTES = THE PARAMETER LIST GENERATED BY THE STANDARD AND LIST    * 01300000
.*           FORMS OF THIS MACRO IS 112 BYTES IN LENGTH.              * 01350000
.*           IF MDUMP OPTIONS ARE SPECIFIED, THE PARAMETER LIST       * 01366600
.*             IS 128 BYTES.                                          * 01383200
.*           IF STRLIST, INTOKEN, REMOTE, PROBDESC, JOBLIST, DSPLIST  * 01387400
.*           IS SPECIFIED, THE PARAMETER LIST                         * 01391600
.*             IS 184 BYTES.                                          * 01395800
.*                                                                    * 01400000
.*   CHANGE ACTIVITY = FIX PROBLEM WITH ECB OPTION 6/22/79    @ZMB0025* 01450000
.*                     OS/VS2 JBB1226:                        @G383P1U* 01500000
.*                     1. SUPPORT FOR NEW KEYWORDS:                   * 01550000
.*                        LISTA,SUMLSTA,TYPE=XMEM             @G383P1U* 01600000
.*                     2. SUPPORT FOR NEW KEYWORD                     * 01650000
.*                        SUSPEND= YES OR NO                          * 01700000
.*                        SUPPORT FOR SDUMP EXITS             @G386P31* 01750000
.*                     3. SUPPORT FOR NEW KEYWORD: TYPE=XMEME @G38AP31* 01800000
.*                     4. SUPPORT FOR NEW KEYWORD: SUMLSTL        @L5A* 01825000
.*                     APAR OZ51194 - MF=(E,(1)) ON EXECUTE   @ZA51194* 01850000
.*                        FORM WITH NO OTHER PARAMETERS       @ZA51194* 01900000
.*                        GENERATES AN OR IMMEDIATE.          @ZA51194* 01950000
.*                     OS/VS2 JBB1326:                            @L1A* 02000000
.*                     @L1= RAS JBB1326 810130 PD31:PAGE PROTECT  @L1A* 02050000
.*                     OS/VS2 HBB2102:                        @G860P31* 02100000
.*                     1. SUPPORT ALLNUC, SUBPLST, KEYLIST            * 02150000
.*                     2. ADD RESERVED FIELDS FOR SLIP AND SYSMDUMP   * 02200000
.*                     3. ADD BLOCK COMMENTS TO AID DEBUGGING         * 02250000
.*                     4. SUPPORT SPLEVEL                     @G860P1X* 02300000
.*                     5. ADD TYPE=NOLOCAL PARAMETER TO PREVENT       * 02350000
.*                        SDUMP FROM OBTAINING A LOCAL LOCK.  @ZMC2707* 02400000
.*  FLAG  REASON  RELEASE   DATA  ORIGIN                          @L2A* 02450000
.*  $L2=  RASENH  JBB2220  841119  PD2F: SUPPORT TYPE=FAILRC      @L2A* 02500000
.*  $L3=    AR    HBB3310  850901  PDXB: AR SUPPORT                   * 02550000
.*  $L4=  RTMRAS  HBB3310  860728  PDA8: SLIP SYNCHRONOUS SVC DUMP    * 02575000
.*  $P1= PC40145  HBB3310  860829  PD2F: CORRECT SPELLING IN MESG2E   * 02587500
.*  $P2= PC40810  HBB3310  870312  PDA8: SRB KEYWORD PROCESSING       * 02588300
.*  $T1= OY21535  JBB2220  890331  PDXB: MDUMP SUPPORT                * 02589100
.*  $T2= OY21535  HBB3310  890331  PDXB: MDUMP SUPPORT                * 02589900
.*  $T3= OY21535  HBB3310  890331  PDXB: MDUMP SUPPORT FOR SDUMPX     * 02590700
.*  $L5= DATASPAC HBB3310  861029  PDAY: SUMLSTL KEYWORD SUPPORT  @L5A* 02591600
.*  $L6= DATASPAC HBB3310  861029  PDQ6: LISTD   KEYWORD SUPPORT  @L6A* 02595700
.*  $L7= COUPLSDU HBB4410  870116  PDQ6: SDATA COUPLE             @L7A* 02597800
.*  $L8= DATACAPT HBB4420  900226  PDHT: UPGRADED SYNTAX FOR ECB &    * 02598500
.*                                       SRB KEYWORDS             @L8A* 02599200
.*  $L9= SYSLK    HBB5510  900904  PDHP: SDATA IXLDATA            @L9A* 02599400
.*  $D1= DH30150  HBB4420  901024  PDHR: SRB CAPTURE DEFAULT          * 02599600
.*  $LA= SYSLK    HBB5510  910311  PDHT: XESDATA INSTEAD OF IXLDATA   * 02608000
.*                                                                @LAA* 02616400
.*  $LB= SYSLKD   HBB5510  910930  PDCV: Support for dumping SES      * 02624800
.*                                        facility                @LBA* 02633200
.*  $LC= SDMPE    HBB5510  921230  PDXB: REMOTE                       * 02637400
.*  $P3= PIG1380  HBB5510  920405  PDXB: Fix syntax                   * 02639500
.*  $LD= WLMI     HBB5510  930415  PDHT: WLM dump exit            @LDA* 02640500
.*  $01= OW13112  HBB4430  950512  PDKV: Fix HDR ALET offset      @01A* 02641000
.*  $LE= TSVCD    JBB6607  980413  PDHT: Tailored SVC Dump        @LEA* 02641300
.*                                                                    * 02641600
.********************************************************************** 02650000
.*                                                                      02700000
.*       DEFINE SET SYMBOLS                                             02750000
.*                                                                      02800000
         GBLC  &SYSSPLV           SYSTEM/MACRO LIBRARY LEVEL   @G860P1X 02850000
         GBLC  &SDPLVER     SET ACCORDING TO HIGHEST PLISTVER     @T1P  02875000
         LCLA  &SDFLAG0           SDFLAG0 FIELD OF PARAMETER LIST       02900000
         LCLA  &SDFLAG1           SDFLAG1 FIELD OF PARAMETER LIST       02950000
         LCLA  &SDFLAG2           SDFLAG2 PARAMETER LIST FIELD @G383P1U 03000000
         LCLA  &SDATAF1,&SDATAF2  SDATA FIELD OF PARAMETER LIST         03050000
         LCLA  &SDATAF3,&SDATAF4  SDATA EXIT FIELDS PARM LIST      @LEC 03087500
         LCLA  &SDAT3             SDUSDAT3 FIELD OF PARM LIST      @T1P 03125000
         LCLA  &SDCNTL1           CONTROL FLAGS FOR IDENTIFYING NEW     03150000
.*                                RELEASES AND EXPANDED PARAMETER LIST  03200000
.*                                LENGTHS                      @G860P31 03250000
         LCLA  &SDTYPF1           TYPE FIELD OF PARAMETER LIST @G383P1U 03300000
         LCLA  &CTR1,&CTR2        COUNTERS FOR LOOP CONTROL, INDEX      03350000
         LCLA  &HDRCTR            NUMBER OF PAIRED APOSTROPHES          03400000
         LCLA  &IDCTR             NUMBER OF PAIRED APOSTROPHES     @T1P 03425000
         LCLA  &DISP              DISPLACEMENT FOR STORING ADDRESSES    03450000
         LCLA  &DISP1             DISPLACEMENT FOR STOR LIST@G860P31    03500000
         LCLA  &DISP2             DISPLACEMENT FOR HDR DATA    @G860P31 03550000
         LCLA  &STRCNT            COUNT OF STOR ADDRESSES      @G860P31 03600000
         LCLC  &GNAME             SYMBOLIC NAME-BRANCH AROUND CONSTANTS 03650000
         LCLC  &TEMP              TEMPORARY VARIABLE               @T1P 03675000
         LCLB  &SDDCB             SET IF DCB ADDRESS IS SPECIFIED       03700000
         LCLB  &SDBUFF            SET IF BUFFER IS TO BE DUMPED         03750000
         LCLB  &SDSTOR            SET IF STORAGE OR LIST IS SPECIFIED   03800000
         LCLB  &SDHDR             SET IF HDR OR HDRAD IS SPECIFIED      03850000
         LCLB  &SDECB             SET IF AN ECB ADDRESS IS SUPPLIED     03900000
         LCLB  &SDECBWR           SET IF THE ECB IS TO BE POSTED AFTER  03908300
.*                                THE WRITE PHASE HAS COMPLETED    @D1A 03916600
         LCLB  &SDSTRLI           SET IF AN STRLIST ADDRESS IS SUPPLIED 03919400
.*                                                                 @LBA 03922200
         LCLB  &SDSRB            SET IF AN SRB ADDRESS IS SUPPLIED @L4A 03925000
         LCLB  &SDSRBWR         SET IF THE SRB IS TO BE SCHEDULED AFTER 03929100
.*                                THE WRITE PHASE HAS COMPLETED    @D1A 03933200
         LCLB  &SDWRITE           SET IF THE ECB IS TO BE POSTED OR     03937300
.*                                THE SRB IS TO BE SCHEDULED AFTER      03941400
.*                                THE WRITE PHASE HAS COMPLETED    @D1A 03945500
         LCLB  &SDASID            SET IF AN ASID IS SPECIFIED           03950000
         LCLB  &SDASIDL           SET IF AN ASIDLIST IS SPECIFIED       04000000
.*                                                             @G33VPHD 04050000
         LCLB  &SDQUIET           SET IF SYSTEM IS TO BE QUIESCED       04100000
         LCLB  &SDBRNCH           SET IF INTERFACE IS BRANCH ENTRY      04150000
         LCLB  &DUMPTYP           ALWAYS SET FOR SVC DUMP               04200000
         LCLB  &SDALPSA           SET IF ALL PSA IN SYSTEM TO BE DUMPED 04250000
         LCLB  &SDPSA             SET IF CURRENT PSA IS TO BE DUMPED    04300000
         LCLB  &SDNUC             SET IF NUCLEUS IS TO BE DUMPED        04350000
         LCLB  &SDSQA             SET IF SQA IS TO BE DUMPED            04400000
         LCLB  &SDLSQA            SET IF LSQA IS TO BE DUMPED           04450000
         LCLB  &SDRGN             SET IF VIRTUAL MEMORY IS TO BE DUMPED 04500000
         LCLB  &SDLPA             SET IF ACTIVE LPA MOD FOR MEMORY REQ  04550000
         LCLB  &SDTRT             SET IF GTF INCORE TRACE BUFFERS  REQ  04600000
         LCLB  &SDCSA             SET IF CSA SUBPOOLS ARE TO BE DUMPED  04650000
         LCLB  &SDSWA             SET IF SWA FOR MEMORY TO BE DUMPED    04700000
.*                                                                      04750000
         LCLB  &SDSUMLT           SET IF SUMLIST SPECIFIED     @G33VPHD 04800000
         LCLB  &SDSMDMP           SET IF SUMDUMP SPECIFIED     @G33VPHD 04850000
         LCLB  &SDNSMDP           SET IF NO SUMDUMP SPECIFIED  @G33VPHD 04900000
         LCLB  &SDNSQA            SET IF NO SQA SPECIFIED      @G33VPHD 04950000
         LCLB  &SDNAPSA           SET IF NOALLPSA IS SPECIFIED @G33VPHD 05000000
         LCLB  &SDNEW             SET IF ENHANCED SVC DUMP     @G33VPHD 05050000
         LCLB  &SDSE3PM         SET IF JBB1226 PARMS SPECIFIED @G383P1U 05100000
         LCLB  &SDGRSQ            SET IF SDATA=GRSQ SPECIFIED  @G383P1U 05150000
         LCLB  &SDCOUPL           SET IF SDATA=COUPLE SPECIFIED    @L7A 05175000
         LCLB  &SDXES             SET IF SDATA=XESDATA SPECIFIED   @LAC 05187500
         LCLB  &SDWLM             SET IF SDATA=WLM SPECIFIED       @LDA 05193700
         LCLB  &SDTSVCD           SET IF SDATA=SERVERS SPECIFIED   @LEA 05196800
.********************************************************************** 05200000
.* FOR EACH NEW SDUMP EXIT, ADD A NEW VARIABLE DEFINED SIMILAR TO       05250000
.* SDGRSQ.                                                     @G386P31 05300000
.********************************************************************** 05350000
         LCLB  &SDLISTA           SET IF LISTA PARM SPECIFIED  @G383P1U 05400000
         LCLB  &SDLISTD           SET IF LISTD PARM SPECIFIED      @L6A 05425000
         LCLB  &SDSMLTA           SET IF SUMLSTA SPECIFIED     @G383P1U 05450000
         LCLB  &SDSMLTL           SET IF SUMLSTL SPECIFIED         @L5A 05475000
         LCLB  &SDSPEND           SET IF SUSPEND=YES SPECIFIED @G386P31 05500000
         LCLB  &SDTYPXM           SET IF TYPE=XMEM SPECIFIED   @ZMB0025 05550000
         LCLB  &SDTPXME           SET IF TYPE=XMEME SPECIFIED  @G38AP31 05600000
         LCLB  &SDALLNC           SET IF ALLNUC SPECIFIED      @G860P31 05650000
         LCLB  &SDSPLST           SET IF SUBPLST SPECIFIED     @G860P31 05700000
         LCLB  &SDKYLST           SET IF KEYLIST SPECIFIED     @G860P31 05750000
         LCLB  &SDSP21P           SET IF HBB2102 PARM LIST     @G860P31 05800000
         LCLB  &SDVRSNB           SET IF VERSION NUMBER IN LIST    @T1P 05825000
         LCLB  &SDTYPNL          SET IF TYPE=NOLOCAL SPECIFIED @ZMC2707 05850000
         LCLB  &SDTYPRC           SET IF TYPE=FAILRC SPECIFIED     @L2A 05900000
.* FLAGS FOR MDUMP OPTIONS                                              05905000
         LCLC  &PLVER             PLISTVER                         @T1P 05910000
         LCLB  &SDPREG            SET IF PSWREG SPECIFIED          @T1P 05915000
         LCLB  &SDSYMR            SET IF SYMREC SPECIFIED          @T1P 05920000
         LCLB  &SDID              SET IF ID OR IDAD SPECIFIED      @T1P 05925000
         LCLB  &SDIDAD            SET IF IDAD SPECIFIED            @T1P 05930000
         LCLB  &SDDEFS            SET IF DEFAULTS/DEFS SPECIFIED   @T1P 05935000
         LCLB  &SDNODEF           SET IF NODEFAULTS/NODEFS         @T1P 05940000
         LCLB  &SDIO              SET IF IO SPECIFIED              @T1P 05945000
.*                                                                      05950000
.********************************************************************** 06000000
.* IF ANY POSITIONAL PARAMETERS WERE SPECIFIED, THE MACRO IS            06050000
.* SPECIFIED INCORRECTLY AND IS PROBABLY MISSING A SET OF               06100000
.* PARENTHESIS.                                                @G860P1X 06150000
.********************************************************************** 06200000
.*                                                                      06250000
.INVKSP2 ANOP                                                  @G860P1X 06300000
         LCLC  &LA                      "LA" OR "LAE" VIA SYSSTATE @L3A 06325000
         GBLC  &SYSASCE                                            @L3A 06350000
         SYSSTATE TEST                  TEST ASC ENVIRONMENT       @L3A 06400000
&LA      SETC  'LA'                     MUST USE LA INSTRUCTION    @L3A 06410000
         AIF   ('&SYSASCE' EQ 'P').NOLAE                           @L3A 06420000
&LA      SETC  'LAE'                    MUST USE LAE               @L3A 06430000
.NOLAE   ANOP                                                      @L3A 06440000
         AIF  ('&SYSLIST(1)' NE '').MESG1A                     @G860P1X 06450000
.*                                                                      06500000
.********************************************************************** 06550000
.*                                                                      06600000
.*         SYNTAX CHECK FOR MUTUALLY EXCLUSIVE OPTIONS                  06650000
.*                                                             @G860P31 06700000
.********************************************************************** 06750000
.*                                                                      06800000
         AIF   ('&HDR' NE '' AND '&HDRAD' NE '').MESG2A     MUTUALLY    06850000
         AIF   ('&ID' NE '' AND '&IDAD' NE '').MESG2F              @T1P 06875000
         AIF   ('&STORAGE' NE '' AND '&LIST' NE '').MESG2B   EXCLUSIVE  06900000
.*       TEST STORAGE AND LISTA - MUTUALLY EXCLUSIVE           @G383P1U 06950000
         AIF   ('&STORAGE' NE '' AND '&LISTA' NE '').MESG2C    @G383P1U 07000000
.*       TEST LIST AND LISTA - MUTUALLY EXCLUSIVE              @G383P1U 07050000
         AIF   ('&LIST' NE '' AND '&LISTA' NE '').MESG2D       @G383P1U 07100000
.*       TEST SUMLIST AND SUMLSTA - MUTUALLY EXCLUSIVE         @G383P1U 07150000
         AIF   ('&SUMLIST' NE '' AND '&SUMLSTA' NE '').MESG2E  @G383P1U 07200000
.*       TEST ASID AND ASIDLST - MUTUALLY EXCLUSIVE            @G386P31 07250000
         AIF   ('&ASID' NE '' AND '&ASIDLST' NE '').MESG10     @G383P1U 07300000
.*                                                                      07350000
.********************************************************************** 07400000
.*                                                                      07450000
.*    PARSE THE HDR PARAMETER FOR INVALID LENGTH AFTER ACCOUNTING       07500000
.*    FOR STARTING, ENDING, AND PAIRED APOSTROPHES.                     07550000
.*                                                             @G860P31 07600000
.********************************************************************** 07650000
.*                                                                      07700000
         AIF   ('&HDR' EQ '').SD3I          HDR SPECIFIED          @T1P 07750000
         AIF   ('&HDR'(1,1) NE '''').MESG9  IS FIRST CHAR APOSTROPHE    07800000
&CTR1    SETA  K'&HDR-1                     LENGTH OF USER DATA +1      07850000
         AIF   (&CTR1 LT 2).MESG9A          INVALID HDR SPECIFICATION   07900000
.*                                                            @ZMC0399  07950000
&HDRCTR  SETA  0                            NUMBER OF PAIRED APOSTROHES 08000000
&CTR2    SETA  2                            INDEX FIRST CHAR-USER DATA  08050000
.SDLOOP  ANOP                                                           08100000
         AIF   (&CTR2 GE &CTR1).SD2              END OF SCAN            08150000
         AIF   ('&HDR'(&CTR2,2) EQ '''''').SD1   PAIRED APOSTROPHES     08200000
&CTR2    SETA  &CTR2+1                           UPDATE INDEX BY 1      08250000
         AGO   .SDLOOP                           CONTINUE LOOP          08300000
.SD1     ANOP                                                           08350000
&HDRCTR  SETA  &HDRCTR+1                    ONE MORE PAIRED APOSTROPHES 08400000
&CTR2    SETA  &CTR2+2                      UPDATE INDEX BY 2           08450000
         AGO   .SDLOOP                      CONTINUE LOOP               08500000
.SD2     ANOP                                                           08550000
&CTR1    SETA  K'&HDR-2-&HDRCTR             LENGTH OF USER DATA         08600000
         AIF   (&CTR1 GT 100).MESG8         USER DATA TOO LONG          08650000
.********************************************************************** 08750000
.*                                                                      08800000
.*    PARSE THE ID PARAMETER FOR INVALID LENGTH AFTER ACCOUNTING        08801700
.*    FOR STARTING, ENDING, AND PAIRED APOSTROPHES.                     08803400
.*                                                                 @T1P 08805100
.********************************************************************** 08806800
.*                                                                      08808500
.SD3I    AIF   ('&ID' EQ '').SD3            ID SPECIFIED           @T1P 08810200
         AIF   ('&ID'(1,1) NE '''').MESG9I  FIRST CHAR APOSTROPHE  @T1P 08811900
&CTR1    SETA  K'&ID-1                      LENGTH+1               @T1P 08813600
         AIF   (&CTR1 LT 2).MESG9AI         INVALID ID SPECIFICATION   *08815300
                                                                   @T1P 08817000
&IDCTR   SETA  0                            PAIRED APOSTROPHES     @T1P 08818700
&CTR2    SETA  2                            INDEX FIRST CHAR       @T1P 08820400
.SDLOOPI ANOP                                                      @T1P 08822100
         AIF   (&CTR2 GE &CTR1).SD2I             END OF SCAN       @T1P 08823800
         AIF   ('&ID'(&CTR2,2) EQ '''''').SD1I   PAIRED            @T1P 08825500
&CTR2    SETA  &CTR2+1                           UPDATE INDEX BY 1 @T1P 08827200
         AGO   .SDLOOPI                          CONTINUE LOOP     @T1P 08828900
.SD1I    ANOP                                                      @T1P 08830600
&IDCTR   SETA  &IDCTR+1                     ONE MORE               @T1P 08832300
&CTR2    SETA  &CTR2+2                      UPDATE INDEX BY 2      @T1P 08834000
         AGO   .SDLOOPI                     CONTINUE LOOP          @T1P 08835700
.SD2I    ANOP                                                      @T1P 08837400
&CTR1    SETA  K'&ID-2-&IDCTR               LENGTH OF USER DATA    @T1P 08839100
         AIF   (&CTR1 GT 50).MESG8I         USER DATA TOO LONG     @T1P 08840800
.*                                                                      08842500
.********************************************************************** 08844200
.*                                                                      08845900
.*    CHECK FOR INVALID PARAMETERS SPECIFIED WITH MF=L                  08850000
.*                                                             @G860P31 08900000
.********************************************************************** 08950000
.*                                                                      09000000
.SD3     AIF   ('&MF' NE 'L').SD5           IS MF STANDARD OR EXECUTE   09050000
         AIF   ('&ASID' NE '').MESG5A       ASID INVALID W/MF=L         09100000
         AIF   ('&ECB' NE '').MESG5B        ECB INVALID W/MF=L          09150000
         AIF   ('&SRB' NE '').MESG5F        SRB INVALID W/MF=L     @L4A 09175000
         AIF   ('&BRANCH' NE '').MESG5C     BRANCH INVALID W/MF=L       09200000
         AIF   ('&ASIDLST' NE '').MESG5D   ASID INV W/MF=L     @G33VPHD 09250000
.*                                                                      09300000
.********************************************************************** 09350000
.*                                                                      09400000
.*  CHECK FOR VALID OPERANDS (YES OR NO) ON BUFFER, BRANCH, AND QUIESCE 09450000
.*                                                             @G860P31 09500000
.********************************************************************** 09550000
.*                                                                      09600000
.SD5     AIF   ('&BUFFER' EQ '').SD9        IS BUFFER SPECIFIED         09650000
.*                                                             @G33VPHD 09700000
         AIF   ('&BUFFER' NE 'YES' AND '&BUFFER' NE 'NO').MESG4B        09750000
.*                                                             @G33VPHD 09800000
.SD9     AIF   ('&BRANCH' EQ '').SD11       IS BRANCH SPECIFIED         09850000
         AIF   ('&BRANCH' NE 'YES' AND '&BRANCH' NE 'NO').MESG4C        09900000
.SD11    AIF   ('&QUIESCE' EQ '').SD13      IS QUIESCE SPECIFIED        09950000
         AIF   ('&QUIESCE' NE 'YES' AND '&QUIESCE' NE 'NO').MESG4D      10000000
.*                                                                      10050000
.********************************************************************** 10100000
.*                                                                      10150000
.*  CHECK FOR AN EVEN NUMBER OF STORAGE RANGES.                         10200000
.*                                                             @G860P31 10250000
.********************************************************************** 10300000
.*                                                                      10350000
.SD13    AIF   ('&STORAGE' EQ '').SD15      IS STORAGE SPECIFIED        10400000
&CTR1    SETA  N'&STORAGE/2                 NUMBER OF ADDRESS PAIRS     10450000
&CTR2    SETA  (N'&STORAGE-1)/2             NUMBER OF PAIRS MINUS 1     10500000
         AIF   (&CTR1 EQ &CTR2).MESG6       ODD NUMBER OF ADDRESSES     10550000
.SD15    ANOP                                                           10600000
.*                                                                      10650000
.********************************************************************** 10700000
.*                                                                      10750000
.*       SDFLAG0 PROCESSING                                             10800000
.*                                                             @G860P31 10850000
.********************************************************************** 10900000
.*                                                                      10950000
&SDDCB   SETB  ('&DCB' NE '')                IF DCB SPECIFIED           11000000
&SDBUFF  SETB  ('&BUFFER' EQ 'YES')          IF BUFFER TO BE DUMPED     11050000
&SDSTOR  SETB  ('&STORAGE' NE '' OR '&LIST' NE '')    STORAGE ADDR LIST 11100000
&SDHDR   SETB  ('&HDR' NE '' OR '&HDRAD' NE '')       USER DATA         11150000
         AIF   ('&ECB' NE '' AND '&SRB' NE '').MESG13B SRB AND ECB ARE X11166600
               MUTUALLY EXCLUSIVE                                  @L4A 11183200
&SDECB   SETB  ('&ECB' NE '')               IF ECB SPECIFIED            11186400
         AIF   ('&ECB(2)' NE '' AND '&ECB(2)' NE 'WRITE' AND '&ECB(2)' X11189600
               NE 'CAPTURE').MESG3B                                @L8A 11192800
&SDECBWR SETB  ('&ECB(2)' EQ 'WRITE')       IS THE ECB TO BE POSTED    X11196000
               WHEN THE WRITE PHASE HAS COMPLETED                  @D1C 11199200
         AIF   (&SDDCB EQ 0 OR &SDECB EQ 0 OR &SDECBWR EQ 1).SD20      X11202400
               IF NOT (DCB & ECB & CAPTURE REQUEST/DEFAULTED) DON'T    X11205600
               ISSUE INFORMATIONAL AND OVERRIDE REQUEST            @D1C 11208800
         MNOTE 0,'ECB POST TIME FORCED TO WRITE BECAUSE THE DCB KEYWORDX11212000
                SPECIFIED'                                         @L8A 11215200
&SDECBWR SETB  1                            FORCE TO WRITE PHASE   @D1A 11218400
.SD20    ANOP                                                      @L8A 11221600
&SDSRB   SETB  ('&SRB' NE '')                IF SRB SPECIFIED      @L4A 11225000
         AIF   ('&SRB(2)' NE '' AND '&SRB(2)' NE 'WRITE' AND '&SRB(2)' X11230000
               NE 'CAPTURE').MESG3B                                @L8A 11235000
&SDSRBWR SETB  ('&SRB(2)' EQ 'WRITE')       IS THE SRB TO BE SCHEDULED X11236500
               WHEN THE CAPTURE PHASE HAS COMPLETED                @D1C 11238000
         AIF   (&SDDCB EQ 0 OR &SDSRB EQ 0 OR &SDSRBWR EQ 1).SD21      X11239500
               IF NOT (DCB & SRB & CAPTURE REQUEST/DEFAULTED) DON'T    X11241000
               ISSUE INFORMATIONAL AND OVERRIDE REQUEST            @D1C 11242500
         MNOTE 0,'SRB SCHEDULE TIME FORCED TO WRITE BECAUSE THE DCB KEYX11244000
               WORD SPECIFIED'                                     @D1C 11245500
&SDSRBWR SETB  1                            FORCE TO WRITE PHASE   @D1A 11247000
.SD21    ANOP                                                      @D1A 11248500
&SDASID  SETB  ('&ASID' NE '')               IF ASID SPECIFIED          11250000
&SDQUIET SETB  ('&QUIESCE' NE 'NO')          IF SYSTEM TO BE QUIESCED   11300000
.*             SDQUIET IS SET FOR QUIESCE=YES OR DEFAULTED TO YES       11350000
.*             THE DEFAULT ONLY APPLIES TO THE LIST AND STANDARD FORM,  11400000
.*             AND MUST BE COMPENSATED FOR ON THE EXECUTE FORM.         11450000
&SDBRNCH SETB  ('&BRANCH' EQ 'YES')          IF LINKAGE BY BRANCH ENTRY 11500000
&SDFLAG0 SETA  128*&SDDCB+64*&SDBUFF+32*&SDSTOR+16*&SDHDR+8*&SDECB+4*&SX11550000
               DASID+2*&SDQUIET+1*&SDBRNCH                              11600000
.*                                                                      11650000
.********************************************************************** 11700000
.*                                                                      11750000
.*       SDFLAG1 PROCESSING                                             11800000
.*                                                             @G860P31 11850000
.********************************************************************** 11900000
.*                                                                      11950000
&DUMPTYP SETB  1                  ALWAYS ON FOR SVC DUMP                12000000
&SDNEW   SETB  1                  ALWAYS SET TO 1 FOR NEW SDUMP MACRO   12050000
.*                                                             @G33VPHD 12100000
&SDASIDL SETB  ('&ASIDLST' NE '') IF ASIDLIST WAS SPECIFIED             12150000
.*                                                             @G33VPHD 12200000
&SDSUMLT SETB  ('&SUMLIST' NE '') IF SUMLIST WAS SPECIFIED              12250000
.*                                                             @G33VPHD 12300000
&SDFLAG1 SETA  128*&DUMPTYP+32*&SDNEW+16*&SDASIDL+8*&SDSUMLT            12350000
.*                                                                      12400000
.********************************************************************** 12450000
.*                                                                      12500000