         MACRO                                                          00050000
&NAME    SDUMP7 &HDR=,&HDRAD=,&DCB=,&ASID=,&ASIDLST=,&ECB=,&SDATA=,    X00100000
               &STORAGE=,&LIST=,&SUMLIST=,&BUFFER=,&QUIESCE=,&BRANCH=, X00150000
               &LISTA=,&TYPE=,&SUMLSTA=,&SUSPEND=,&MF=         @G860P1X 00200000
.********************************************************************** 00250000
.*   MACRO NAME = SDUMP7                                      @G860P1X* 00300000
.*                                                                    * 00350000
.*   DESCRIPTIVE NAME = SDUMP7 EXECUTABLE MACRO               @G860P1X* 00400000
.*                                                                    * 00450000
.*   PROPRIETARY STATEMENT =                                          * 00500000
.*                                                                    * 00550000
.*               LICENSED MATERIALS - PROPERTY OF IBM                 * 00592800
.*               THIS MACRO IS "RESTRICTD MATERIALS OF IBM"           * 00635600
.*               5740-XC6 (C) COPYRIGHT IBM CORP. 1980, 1981          * 00678400
.*               SEE COPYRIGHT INSTRUCTIONS                           * 00721200
.*                                                                    * 00764000
.*   STATUS = OS/VS2 HBB2102                                  @G860P1X* 00806800
.*                                                                    * 00850000
.*   FUNCTION = PROVIDES THE INTERFACE BETWEEN THE CALLER AND SVC     * 00900000
.*              DUMP.  LIST AND EXECUTE FORMS EXIST TO GENERATE       * 00950000
.*              THE SDUMP7 PARAMETER LIST AND PROPER LINKAGE  @G860P1X* 01000000
.*              TO THE SVC DUMP SERVICE.                              * 01050000
.*                                                                    * 01100000
.*   NOTES = THE PARAMETER LIST GENERATED BY THE STANDARD AND LIST    * 01150000
.*           FORMS OF THIS MACRO IS AT LEAST 40 BYTES IN LENGTH.      * 01200000
.*           IF ANY OF THE NEW MVS/JBB1226 PARAMETERS ARE SPECIFIED,  * 01250000
.*           THE PARAMETER LIST LENGTH IS 48 BYTES.                   * 01300000
.*                                                                    * 01350000
.*   CHANGE ACTIVITY = FIX PROBLEM WITH ECB OPTION 6/22/79    @ZMB0025* 01400000
.*                     OS/VS2 JBB1226                         @G383P1U* 01450000
.*                     1. SUPPORT FOR NEW KEYWORDS:                   * 01500000
.*                        LISTA,SUMLSTA,TYPE=XMEM             @G383P1U* 01550000
.*                     2. SUPPORT FOR NEW KEYWORD                     * 01600000
.*                        SUSPEND= YES OR NO                          * 01650000
.*                        SUPPORT FOR SDUMP7 EXITS            @G860P1X* 01700000
.*                     3. SUPPORT FOR NEW KEYWORD: TYPE=XMEME @G38AP31* 01750000
.*                     APAR OZ51194 - MF=(E,(1)) ON EXECUTE   @ZA51194* 01800000
.*                        FORM WITH NO OTHER PARAMETERS       @ZA51194* 01850000
.*                        GENERATES AN OR IMMEDIATE.          @ZA51194* 01900000
.*                     OS/VS2 JBB1326                             @L1A* 01950000
.*                     @L1= RAS JBB1326 810130 PD31:PAGE PROTECT  @L1A* 02000000
.*                     0S/VS2 HBB2102                         @G860P1X* 02006200
.*                       THIS MACRO IS NEW FOR HBB2102. IT IS @G860P1X* 02012400
.*                       ESSENTIALLY THE SAME MACRO AS THE    @G860P1X* 02018600
.*                       JBB1326 VERSION OF THE SDUMP MACRO   @G860P1X* 02024800
.*                       WITH THE MACRO NAME CHANGED TO       @G860P1X* 02031000
.*                       SDUMP7. IT IS CALLED FROM THE SDUMP  @G860P1X* 02037200
.*                       MACRO IF SPLEVEL IS ONE.             @G860P1X* 02043400
.*                                                                    * 02050000
.********************************************************************** 02100000
.*                                                                      02150000
.*       DEFINE SET SYMBOLS                                             02200000
.*                                                                      02250000
         GBLB  &SDSE3LT         SET IF JBB1226 LIST FORM MACRO @G860P1X 02300000
         GBLB  &SDSE3EX         SET IF JBB1226 EXECUTE FORM    @G860P1X 02350000
         GBLB  &SDLISTF    LIST FORM WAS PREVIOUSLY SPECIFIED @G383P1U  02400000
         LCLA  &SDFLAG0           SDFLAG0 FIELD OF PARAMETER LIST       02450000
         LCLA  &SDFLAG1           SDFLAG1 FIELD OF PARAMETER LIST       02500000
         LCLA  &SDFLAG2           SDFLAG2 PARAMETER LIST FIELD @G383P1U 02550000
         LCLA  &SDATAF1,&SDATAF2  SDATA FIELD OF PARAMETER LIST         02600000
         LCLA  &SDATAF3           SDATA EXIT FIELDS PARM LIST  @G383P1U 02650000
         LCLA  &SDTYPF1           TYPE FIELD OF PARAMETER LIST @G383P1U 02700000
         LCLA  &CTR1,&CTR2        COUNTERS FOR LOOP CONTROL, INDEX      02750000
         LCLA  &HDRCTR            NUMBER OF PAIRED APOSTROPHES          02800000
         LCLA  &DISP              DISPLACEMENT FOR STORING ADDRESSES    02850000
         LCLC  &GNAME             SYMBOLIC NAME-BRANCH AROUND CONSTANTS 02900000
         LCLB  &SDDCB             SET IF DCB ADDRESS IS SPECIFIED       02950000
         LCLB  &SDBUFF            SET IF BUFFER IS TO BE DUMPED         03000000
         LCLB  &SDSTOR            SET IF STORAGE OR LIST IS SPECIFIED   03050000
         LCLB  &SDHDR             SET IF HDR OR HDRAD IS SPECIFIED      03100000
         LCLB  &SDECB             SET IF AN ECB ADDRESS IS SUPPLIED     03150000
         LCLB  &SDASID            SET IF AN ASID IS SPECIFIED           03200000
         LCLB  &SDASIDL           SET IF AN ASIDLIST IS SPECIFIED       03250000
.*                                                             @G33VPHD 03300000
         LCLB  &SDQUIET           SET IF SYSTEM IS TO BE QUIESCED       03350000
         LCLB  &SDBRNCH           SET IF INTERFACE IS BRANCH ENTRY      03400000
         LCLB  &DUMPTYP           ALWAYS SET FOR SVC DUMP               03450000
         LCLB  &SDALPSA           SET IF ALL PSA IN SYSTEM TO BE DUMPED 03500000
         LCLB  &SDPSA             SET IF CURRENT PSA IS TO BE DUMPED    03550000
         LCLB  &SDNUC             SET IF NUCLEUS IS TO BE DUMPED        03600000
         LCLB  &SDSQA             SET IF SQA IS TO BE DUMPED            03650000
         LCLB  &SDLSQA            SET IF LSQA IS TO BE DUMPED           03700000
         LCLB  &SDRGN             SET IF VIRTUAL MEMORY IS TO BE DUMPED 03750000
         LCLB  &SDLPA             SET IF ACTIVE LPA MOD FOR MEMORY REQ  03800000
         LCLB  &SDTRT             SET IF GTF INCORE TRACE BUFFERS  REQ  03850000
         LCLB  &SDCSA             SET IF CSA SUBPOOLS ARE TO BE DUMPED  03900000
         LCLB  &SDSWA             SET IF SWA FOR MEMORY TO BE DUMPED    03950000
.*                                                                      04000000
         LCLB  &SDSUMLT           SET IF SUMLIST SPECIFIED     @G33VPHD 04050000
         LCLB  &SDSMDMP           SET IF SUMDUMP SPECIFIED     @G33VPHD 04100000
         LCLB  &SDNSMDP           SET IF NO SUMDUMP SPECIFIED  @G33VPHD 04150000
         LCLB  &SDNSQA            SET IF NO SQA SPECIFIED      @G33VPHD 04200000
         LCLB  &SDNAPSA           SET IF NOALLPSA IS SPECIFIED @G33VPHD 04250000
         LCLB  &SDNEW             SET IF ENHANCED SVC DUMP     @G33VPHD 04300000
         LCLB  &SDSE3PM         SET IF JBB1226 PARMS SPECIFIED @G860P1X 04350000
         LCLB  &SDGRSQ            SET IF SDATA=GRSQ SPECIFIED  @G383P1U 04400000
.********************************************************************** 04450000
.* FOR EACH NEW SDUMP EXIT, ADD A NEW VARIABLE DEFINED SIMILAR TO       04500000
.* SDGRSQ.                                                     @G386P31 04550000
.********************************************************************** 04600000
         LCLB  &SDLISTA           SET IF LISTA PARM SPECIFIED  @G383P1U 04650000
         LCLB  &SDSMLTA           SET IF SUMLSTA SPECIFIED     @G383P1U 04700000
         LCLB  &SDSPEND           SET IF SUSPEND=YES SPECIFIED @G386P31 04750000
         LCLB  &SDTYPXM           SET IF TYPE=XMEM SPECIFIED   @ZMB0025 04800000
         LCLB  &SDTPXME           SET IF TYPE=XMEME SPECIFIED  @G38AP31 04850000
.*       INITIAL ERRORS                                                 04900000
.*                                                                      04950000
         AIF   ('&HDR' NE '' AND '&HDRAD' NE '').MESG2A     MUTUALLY    05000000
         AIF   ('&STORAGE' NE '' AND '&LIST' NE '').MESG2B   EXCLUSIVE  05050000
.*       TEST STORAGE AND LISTA - MUTUALLY EXCLUSIVE           @G383P1U 05100000
         AIF   ('&STORAGE' NE '' AND '&LISTA' NE '').MESG2C    @G383P1U 05150000
.*       TEST LIST AND LISTA - MUTUALLY EXCLUSIVE              @G383P1U 05200000
         AIF   ('&LIST' NE '' AND '&LISTA' NE '').MESG2D       @G383P1U 05250000
.*       TEST SUMLIST AND SUMLSTA - MUTUALLY EXCLUSIVE         @G383P1U 05300000
         AIF   ('&SUMLIST' NE '' AND '&SUMLSTA' NE '').MESG2E  @G383P1U 05350000
.*       TEST ASID AND ASIDLST - MUTUALLY EXCLUSIVE            @G386P31 05400000
         AIF   ('&ASID' NE '' AND '&ASIDLST' NE '').MESG10     @G383P1U 05450000
         AIF   ('&HDR' EQ '').SD3           HDR SPECIFIED               05500000
         AIF   ('&HDR'(1,1) NE '''').MESG9  IS FIRST CHAR APOSTROPHE    05550000
&CTR1    SETA  K'&HDR-1                     LENGTH OF USER DATA +1      05600000
&HDRCTR  SETA  0                            NUMBER OF PAIRED APOSTROHES 05650000
&CTR2    SETA  2                            INDEX FIRST CHAR-USER DATA  05700000
.SDLOOP  ANOP                                                           05750000
         AIF   (&CTR2 GE &CTR1).SD2              END OF SCAN            05800000
         AIF   ('&HDR'(&CTR2,2) EQ '''''').SD1   PAIRED APOSTROPHES     05850000
&CTR2    SETA  &CTR2+1                           UPDATE INDEX BY 1      05900000
         AGO   .SDLOOP                           CONTINUE LOOP          05950000
.SD1     ANOP                                                           06000000
&HDRCTR  SETA  &HDRCTR+1                    ONE MORE PAIRED APOSTROPHES 06050000
&CTR2    SETA  &CTR2+2                      UPDATE INDEX BY 2           06100000
         AGO   .SDLOOP                      CONTINUE LOOP               06150000
.SD2     ANOP                                                           06200000
&CTR1    SETA  K'&HDR-2-&HDRCTR             LENGTH OF USER DATA         06250000
         AIF   (&CTR1 GT 100).MESG8         USER DATA TOO LONG          06300000
.SD3     AIF   ('&MF' NE 'L').SD5           IS MF STANDARD OR EXECUTE   06350000
         AIF   ('&ASID' NE '').MESG5A       ASID INVALID W/MF=L         06400000
         AIF   ('&ECB' NE '').MESG5B        ECB INVALID W/MF=L          06450000
         AIF   ('&BRANCH' NE '').MESG5C     BRANCH INVALID W/MF=L       06500000
         AIF   ('&ASIDLST' NE '').MESG5D   ASID INV W/MF=L     @G33VPHD 06550000
.SD5     AIF   ('&BUFFER' EQ '').SD9        IS BUFFER SPECIFIED         06600000
.*                                                             @G33VPHD 06650000
         AIF   ('&BUFFER' NE 'YES' AND '&BUFFER' NE 'NO').MESG4B        06700000
.*                                                             @G33VPHD 06750000
.SD9     AIF   ('&BRANCH' EQ '').SD11       IS BRANCH SPECIFIED         06800000
         AIF   ('&BRANCH' NE 'YES' AND '&BRANCH' NE 'NO').MESG4C        06850000
.SD11    AIF   ('&QUIESCE' EQ '').SD13      IS QUIESCE SPECIFIED        06900000
         AIF   ('&QUIESCE' NE 'YES' AND '&QUIESCE' NE 'NO').MESG4D      06950000
.SD13    AIF   ('&STORAGE' EQ '').SD15      IS STORAGE SPECIFIED        07000000
&CTR1    SETA  N'&STORAGE/2                 NUMBER OF ADDRESS PAIRS     07050000
&CTR2    SETA  (N'&STORAGE-1)/2             NUMBER OF PAIRS MINUS 1     07100000
         AIF   (&CTR1 EQ &CTR2).MESG6       ODD NUMBER OF ADDRESSES     07150000
.SD15    ANOP                                                           07200000
.*                                                                      07250000
.*       SDFLAG0 PROCESSING                                             07300000
.*                                                                      07350000
&SDDCB   SETB  ('&DCB' NE '')                IF DCB SPECIFIED           07400000
&SDBUFF  SETB  ('&BUFFER' EQ 'YES')          IF BUFFER TO BE DUMPED     07450000
&SDSTOR  SETB  ('&STORAGE' NE '' OR '&LIST' NE '')    STORAGE ADDR LIST 07500000
&SDHDR   SETB  ('&HDR' NE '' OR '&HDRAD' NE '')       USER DATA         07550000
&SDECB   SETB  ('&ECB' NE '')                IF ECB SPECIFIED           07600000
&SDASID  SETB  ('&ASID' NE '')               IF ASID SPECIFIED          07650000
&SDQUIET SETB  ('&QUIESCE' NE 'NO')          IF SYSTEM TO BE QUIESCED   07700000
&SDBRNCH SETB  ('&BRANCH' EQ 'YES')          IF LINKAGE BY BRANCH ENTRY 07750000
&SDFLAG0 SETA  128*&SDDCB+64*&SDBUFF+32*&SDSTOR+16*&SDHDR+8*&SDECB+4*&SX07800000
               DASID+2*&SDQUIET+1*&SDBRNCH                              07850000
.*                                                                      07900000
.*       SDFLAG1 PROCESSING                                             07950000
.*                                                                      08000000
&DUMPTYP SETB  1                  ALWAYS ON FOR SVC DUMP                08050000
&SDNEW   SETB  1                  ALWAYS SET TO 1 FOR NEW SDUMP MACRO   08100000
.*                                                             @G33VPHD 08150000
&SDASIDL SETB  ('&ASIDLST' NE '') IF ASIDLIST WAS SPECIFIED             08200000
.*                                                             @G33VPHD 08250000
&SDSUMLT SETB  ('&SUMLIST' NE '') IF SUMLIST WAS SPECIFIED              08300000
.*                                                             @G33VPHD 08350000
&SDFLAG1 SETA  128*&DUMPTYP+32*&SDNEW+16*&SDASIDL+8*&SDSUMLT            08400000
.*                                                             @G383P1U 08450000
.*        SDFLAG2 PROCESSING                                   @G383P1U 08500000
.*                                                             @G383P1U 08550000
&SDLISTA SETB  ('&LISTA' NE '')   SET IF LISTA IS SPECIFIED    @G383P1U 08600000
&SDSMLTA SETB  ('&SUMLSTA' NE '') SET IF SUMLSTA SPECIFED      @G383P1U 08650000
&SDFLAG2 SETA  128*&SDLISTA+64*&SDSMLTA                        @G383P1U 08700000
.*                                                                      08750000
.*       SDATA PROCESSING                                               08800000
.*                                                                      08850000
         AIF   ('&SDATA' EQ '').SD80        IS SDATA SPECIFIED          08900000
         AIF   ('&SDATA'(1,1) EQ '(').SD60  MORE THAN 1 OPTION, IN ()   08950000
&CTR1    SETA  0                                                        09000000
&SDALPSA SETB  ('&SDATA' EQ 'ALLPSA')       SET IF ALLPSA SPECIFIED     09050000
&SDPSA   SETB  ('&SDATA' EQ 'PSA')          SET IF PSA SPECIFIED        09100000
&SDNUC   SETB  ('&SDATA' EQ 'NUC')          SET IF NUC SPECIFIED        09150000
&SDSQA   SETB  ('&SDATA' EQ 'SQA')          SET IF SQA SPECIFIED        09200000
&SDLSQA  SETB  ('&SDATA' EQ 'LSQA')         SET IF LSQA SPECIFIED       09250000
&SDRGN   SETB  ('&SDATA' EQ 'RGN')          SET IF RGN SPECIFIED        09300000
&SDLPA   SETB  ('&SDATA' EQ 'LPA')          SET IF LPA SPECIFIED        09350000
&SDTRT   SETB  ('&SDATA' EQ 'TRT')          SET IF TRT SPECIFIED        09400000
&SDCSA   SETB  ('&SDATA' EQ 'CSA')          SET IF CSA SPECIFIED        09450000
&SDSWA   SETB  ('&SDATA' EQ 'SWA')          SET IF SWA SPECIFIED        09500000
&SDSMDMP SETB  ('&SDATA' EQ 'SUMDUMP' OR '&SDATA' EQ 'SUM')             09550000
.*                         SET IF SUMDUMP OR SUM ARE SPECIFIED @G33VPHD 09600000
&SDNSQA  SETB  ('&SDATA' EQ 'NOSQA')        SET IF NOSQA SPECIFIED      09650000
.*                                                             @G33VPHD 09700000
&SDNAPSA SETB  ('&SDATA' EQ 'NOALLPSA' OR '&SDATA' EQ 'NOALL')          09750000
.*                          SET IF NOALLPSA OR NOALL SPECIFIED @G33VPHD 09800000
&SDNSMDP SETB  ('&SDATA' EQ 'NOSUMDUMP' OR '&SDATA' EQ 'NOSUM')         09850000
.*          SET IF NOSUMDUMP OR NOSUM ARE SPECIFIED            @G33VPHD 09900000
         AIF   (&SDNSMDP  EQ  0).SD30  IF NOSUM NOT SPECIFIED  @G383P1U 09950000
         AIF   (&SDSUMLT  EQ  1).MESG15  NOSUM AND SUMLIST     @G383P1U 10000000
         AIF   (&SDSMLTA  EQ  1).MESG15A  NOSUM AND SUMLSTA    @G383P1U 10050000
.SD30    ANOP                                                  @G383P1U 10100000
&SDGRSQ  SETB  ('&SDATA' EQ 'GRSQ')  SET IF GRSQ SPECIFIED     @G383P1U 10150000
.********************************************************************** 10200000
.* FOR EACH NEW SDUMP EXIT, ADD A 'SETB' INSTRUCTION SIMILAR TO THE ONE 10250000
.* ABOVE AND ADD THE EXIT VARIABLE INTO THE FOLLOWING SETA.    @G386P31 10300000
.********************************************************************** 10350000
&CTR1    SETA  &SDALPSA+&SDPSA+&SDNUC+&SDSQA+&SDLSQA+&SDRGN+&SDLPA+&SDTX10400000
               RT+&SDCSA+&SDSWA+&SDSMDMP+&SDNSMDP+&SDNSQA+&SDNAPSA+&SDGX10450000
               RSQ                                             @G386P31 10500000
&CTR2    SETA  1                            IF INVALID, MESG PRINTS IT  10550000
         AIF   ('&CTR1' EQ '0').MESG4A      IS SPECIFIED OPTION VALID   10600000
         AGO   .SD80                        SDATA OPTION PROCESSED      10650000
.SD60    ANOP                     SDATA OPTIONS IN PARENTHESIS          10700000
&CTR1    SETA  N'&SDATA           NUMBER OF OPTIONS ON SDATA PARAMETER  10750000
&CTR2    SETA  0                  NUMBER BY POSITION OPERAND WORKING ON 10800000
.LOOPA1  ANOP                                                           10850000
&CTR2    SETA  &CTR2+1            NUMBER OF NEXT OPTION TO WORK ON      10900000
         AIF   ('&SDATA(&CTR2)' EQ 'ALLPSA').SETAPSA                    10950000
         AIF   ('&SDATA(&CTR2)' EQ 'PSA').SETPSA                        11000000
         AIF   ('&SDATA(&CTR2)' EQ 'NUC').SETNUC                        11050000
         AIF   ('&SDATA(&CTR2)' EQ 'SQA').SETSQA                        11100000
         AIF   ('&SDATA(&CTR2)' EQ 'LSQA').SETLSQA                      11150000
         AIF   ('&SDATA(&CTR2)' EQ 'RGN').SETRGN                        11200000
         AIF   ('&SDATA(&CTR2)' EQ 'LPA').SETLPA                        11250000
         AIF   ('&SDATA(&CTR2)' EQ 'TRT').SETTRT                        11300000
         AIF   ('&SDATA(&CTR2)' EQ 'CSA').SETCSA                        11350000
         AIF   ('&SDATA(&CTR2)' EQ 'SWA').SETSWA                        11400000
         AIF   ('&SDATA(&CTR2)' EQ 'SUMDUMP').SETSUM SUMDUMP SPEC       11450000
.*                                                             @G33VPHD 11500000
         AIF   ('&SDATA(&CTR2)' EQ 'SUM').SETSUM  SET IF SUM SPECIFIED  11550000
.*                                                             @G33VPHD 11600000
         AIF   ('&SDATA(&CTR2)' EQ 'NOSUMDUMP').SETNSUM SET IF          11650000
.*                                   NO SUMDUMP IS SPECIFIED   @G33VPHD 11700000
         AIF   ('&SDATA(&CTR2)' EQ 'NOSUM').SETNSUM  SET IF NOSUM IS    11750000
.*                                                   SPECIFIED          11800000
.*                                                             @G33VPHD 11850000
         AIF   ('&SDATA(&CTR2)' EQ 'NOSQA').SETNSQA  SET IF NOSQA SPEC  11900000
.*                                                             @G33VPHD 11950000
         AIF   ('&SDATA(&CTR2)' EQ 'NOALLPSA').SETNAPA                  12000000
.*                                                             @G33VPHD 12050000
         AIF   ('&SDATA(&CTR2)' EQ 'NOALL').SETNAPA                     12100000
.*                                                             @G33VPHD 12150000
         AIF   ('&SDATA(&CTR2)' EQ 'GRSQ').SETGRSQ SET IF GRSQ @G383P1U 12200000
.********************************************************************** 12250000
.* FOR EACH NEW SDUMP EXIT, ADD AN 'AIF' INSTRUCTION SIMILAR TO THE ONE 12300000
.* ABOVE AND ADD THE NEW LABEL FOR THE SET.                    @G386P31 12350000
.********************************************************************** 12400000
         AGO   .MESG4A                 SDATA OPTION IS INVALID          12450000
.LOOPA2  AIF   (&CTR1 NE &CTR2).LOOPA1 MORE OPTIONS, CONTINUE LOOP      12500000
         AGO   .SD80                   ALL OPTIONS PROCESSED            12550000
.SETAPSA ANOP                          ALLPSA SPECIFIED                 12600000
         AIF   (&SDNAPSA EQ 1).MESG13  NOALLPSA AND ALLPSA IS ERROR     12650000
.*                                                             @G33VPHD 12700000
&SDALPSA SETB  1                       SET INDICATOR                    12750000
         AGO   .LOOPA2                 CONTINUE LOOP                    12800000
.SETPSA  ANOP                          PSA SPECIFIED                    12850000
&SDPSA   SETB  1                       SET INDICATOR                    12900000
         AGO   .LOOPA2                 CONTINUE LOOP                    12950000
.SETNUC  ANOP                          NUC SPECIFIED                    13000000
&SDNUC   SETB  1                       SET INDICATOR                    13050000
         AGO   .LOOPA2                 CONTINUE LOOP                    13100000
.SETSQA  ANOP                          SQA SPECIFIED                    13150000
         AIF   (&SDNSQA EQ 1).MESG12   SQA AND NOSQA IS ERROR           13200000
.*                                                             @G33VPHD 13250000
&SDSQA   SETB  1                       SET INDICATOR                    13300000
         AGO   .LOOPA2                 CONTINUE LOOP                    13350000
.SETLSQA ANOP                          LSQA SPECIFIED                   13400000
&SDLSQA  SETB  1                       SET INDICATOR                    13450000
         AGO   .LOOPA2                 CONTINUE LOOP                    13500000
.SETRGN  ANOP                          RGN SPECIFIED                    13550000
&SDRGN   SETB  1                       SET INDICATOR                    13600000
         AGO   .LOOPA2                 CONTINUE LOOP                    13650000
.SETLPA  ANOP                          LPA SPECIFIED                    13700000
&SDLPA   SETB  1                       SET INDICATOR                    13750000
         AGO   .LOOPA2                 CONTINUE LOOP                    13800000
.SETTRT  ANOP                          TRT SPECIFIED                    13850000
&SDTRT   SETB  1                       SET INDICATOR                    13900000
         AGO   .LOOPA2                 CONTINUE LOOP                    13950000
.SETCSA  ANOP                          CSA SPECIFIED                    14000000
&SDCSA   SETB  1                       SET INDICATOR                    14050000
         AGO   .LOOPA2                 CONTINUE LOOP                    14100000
.SETSWA  ANOP                          SWA SPECIFIED                    14150000
&SDSWA   SETB  1                       SET INDICATOR                    14200000
         AGO  .LOOPA2                  CONTINUE LOOP                    14250000
.SETSUM  ANOP                          SUMDUMP OR SUM SPECIFIED         14300000
.*                                                             @G33VPHD 14350000
         AIF   (&SDNSMDP EQ 1).MESG11  NOSUMDUMP AND SUMDUMP IS ERROR   14400000
.*                                                             @G33VPHD 14450000
&SDSMDMP SETB  1                       SET SUMDUMP INDICATOR            14500000
.*                                                             @G33VPHD 14550000
         AGO   .LOOPA2                 CONTINUE LOOP                    14600000
.*                                                             @G33VPHD 14650000
.SETNSUM ANOP                          NOSUMDUMP OR NOSUM SPECIFIED     14700000
.*                                                             @G33VPHD 14750000
         AIF   (&SDSMDMP EQ 1).MESG11  NOSUMDUMP AND SUMDUMP IS ERROR   14800000
.*                                                             @G33VPHD 14850000
&SDNSMDP SETB  1                       SET NOSUMDUMP INDICATOR          14900000
.*                                                             @G33VPHD 14950000
         AGO   .LOOPA2                 CONTINUE LOOP                    15000000
.*                                                             @G33VPHD 15050000
.SETNSQA ANOP                          NOSQA SPECIFIED                  15100000
.*                                                             @G33VPHD 15150000
         AIF   (&SDSQA EQ 1).MESG12    SQA AND NOSQA IS AN ERROR        15200000
.*                                                             @G33VPHD 15250000
&SDNSQA  SETB  1                       SET NOSQA INDICATOR              15300000
.*                                                             @G33VPHD 15350000
         AGO   .LOOPA2                 CONTINUE LOOP                    15400000
.*                                                             @G33VPHD 15450000
.SETNAPA ANOP                          NOALLPSA OR NOALL SPECIFIED      15500000
.*                                                             @G33VPHD 15550000
         AIF   (&SDALPSA EQ 1).MESG13  NOALLPSA AND ALLPSA IS ERROR     15600000
.*                                                             @G33VPHD 15650000
&SDNAPSA SETB  1                       SET NOALLPSA INDICATOR           15700000
.*                                                             @G33VPHD 15750000
         AGO   .LOOPA2                 CONTINUE LOOP                    15800000
.*                                                             @G33VPHD 15850000
.SETGRSQ ANOP                       GRSQ OPTION SPECIFIED      @G383P1U 15900000
&SDGRSQ  SETB  1                    GRSQ OPTION SPECIFIED      @G383P1U 15950000
         AGO   .LOOPA2                 CONTINUE LOOP           @G383P1U 16000000
.********************************************************************** 16050000
.* FOR EACH NEW SDUMP EXIT, ADD A SET OF 3 INSTRUCTIONS SIMILAR TO THE  16100000
.* 3 PREVIOUS INSTRUCTIONS.                                    @G386P31 16150000
.********************************************************************** 16200000
.SD80    ANOP         ALL SDATA OPTIONS PROCESSED,BUILD SDATA  @G33VPHD 16250000
&SDATAF1 SETA  128*&SDALPSA+64*&SDPSA+32*&SDNUC+16*&SDSQA+8*&SDLSQA+4*&X16300000
               SDRGN+2*&SDLPA+1*&SDTRT                                  16350000
&SDATAF2 SETA  128*&SDCSA+64*&SDSWA+32*&SDSMDMP+16*&SDNSMDP+8*&SDNAPSA+X16400000
               4*&SDNSQA                                                16450000
.*                                                             @G383P1U 16500000
.*       EXIT SDATA PARAMETER PROCESSING                       @G383P1U 16550000
.*                                                             @G383P1U 16600000
&SDATAF3 SETA  128*&SDGRSQ               CALC EXIT FLAG VALUE  @G383P1U 16650000
.********************************************************************** 16700000
.* FOR EACH NEW SDUMP EXIT, ADD ON TO THE SDATAF3 FIELD AN APPROPRIATE  16750000
.* BIT SETTING.                                                @G386P31 16800000
.********************************************************************** 16850000
.*                                                             @G386P31 16900000
.* SUSPEND KEYWORD PROCESSING                                  @G386P31 16950000
.*                                                             @G386P31 17000000
         AIF   ('&SUSPEND' EQ '').SD73  CHECK IF SUSPEND       @G386P31 17050000
.*                      PARAMETER SPECIFIED ?                  @G386P31 17100000
         AIF   ('&SUSPEND' EQ 'NO').SD73  SUSPEND=NO IS SAME   @G386P31 17150000
.*                      AS NOT SPECIFYING THE SUSPEND KEYWORD  @G386P31 17200000
         AIF   ('&SUSPEND' NE 'YES').MESG16A  INVALID SUSPEND  @G386P31 17250000
.* SUSPEND=YES REQUIRES BRANCH=YES AND SUMDUMP                 @G386P31 17300000
         AIF   ('&BRANCH' NE 'YES').MESG16B    NO BRANCH=YES   @G386P31 17350000
         AIF   (&SDNSMDP EQ 1).MESG16C    NOSUMDUMP INVALID    @G386P31 17400000
.* IF YOU HAVE GOTTEN TO HERE THEN SUSPEND=YES IS VALID.       @G386P31 17450000
&SDSPEND SETB  1             TURN ON SUSPEND=YES BIT           @G386P31 17500000
.*                                                             @G383P1U 17550000
.*       TYPE PARAMETER PROCESSING                             @G383P1U 17600000
.*                                                             @G383P1U 17650000
.SD73    AIF   ('&TYPE' EQ '').SD90    IS TYPE PARAMETER SPEC  @G383P1U 17700000
         AIF   ('&TYPE'(1,1) EQ '(').SD75 MORE THAN ONE OPTION @G383P1U 17750000
&CTR1    SETA  0              INITIALIZE LOOP COUNTER          @G383P1U 17800000
&SDTYPXM SETB  ('&TYPE' EQ 'XMEM')  SET IF TYPE=XMEM SPECIFIED @G383P1U 17850000
&SDTPXME SETB  ('&TYPE' EQ 'XMEME') SET IF TYPE=XMEME          @G38AP1U 17900000
&CTR1    SETA  &SDTYPXM+&SDTPXME      CALCULATE VALID OPTIONS  @G38AP1U 17950000
&CTR2    SETA  1             INITIALIZE FOR MNOTE              @G383P1U 18000000
         AIF   ('&CTR1'  EQ  '0').MESG4E  NO VALID OPTIONS     @G383P1U 18050000
         AGO   .SD90         TYPE OPTION PROCESSED             @G383P1U 18100000