*/*01* PROPRIETARY_STATEMENT******************************************/ 00050000
*/*                                                                  */ 00100000
*/*                                                                  */ 00150000
*/* LICENSED MATERIALS - PROPERTY OF IBM                             */ 00200000
*/* THIS MACRO IS "RESTRICTED MATERIALS OF IBM"                      */ 00250000
*/* 5647-A01 (C) COPYRIGHT IBM CORP. 1992, 2000                      */ 00300000
*/*                                                                  */ 00350000
*/* STATUS= HBB7703                                                  */ 00400000
*/*                                                                  */ 00450000
*/*01* EXTERNAL CLASSIFICATION: PI                                   */ 00500000
*/*01* END OF EXTERNAL CLASSIFICATION:                               */ 00550000
*/*                                                                  */ 00600000
*/***END_OF_PROPRIETARY_STATEMENT*************************************/ 00650000
*/*01* EXTERNAL CLASSIFICATION: PI                                   */ 00700000
*/*01* END OF EXTERNAL CLASSIFICATION:                               */ 00750000
*/*                                                                  */ 00800000
         MACRO                                                          00850000
&NAME    SEGLD &EXN                                                     00900000
         AIF   ('&EXN' EQ '').E1                                        00950000
         AIF   ('&EXN'(1,1) EQ '(').E2                                  01000000
         CNOP  0,4                                                      01050000
&NAME    B     *+8                               BRANCH AROUND VCON     01100000
         DC    V(&EXN)                           EXTERNAL NAME          01150000
         L     1,*-4                             LOAD EXTERNAL ADDRESS  01200000
         SR    0,0                               INDICATE SEGLD         01250000
         SVC   37                                ISSUE SEGLD SVC        01300000
         MEXIT                                                          01350000
.E1      IHBERMAC 01                                                    01400000
         MEXIT                                                          01450000
.E2      IHBERMAC 36,,&EXN                                              01500000
         MEND                                                           01550000
