         MACRO                                                          00050000
&NAME    SETFRR7   &OPT,&FRRAD=,&PARMAD=,&WRKREGS=,&RELATED=,&CLEAR=,  C00150000
               &MODE=,&EUT=,&INLINE=NO,&ASSIST=NO,&OPT2        @G860P1C 00200000
.* A-000000-999999                                             @G860P1C 00225000
.* PTM FIX MOVED PROMT COMMENT ABOVE                           @ZMC3023 00250000
*    MACDATE    01/03/83  S/370 LEVEL OF SETFRR                    @H1C 00275000
.*                                                                      00300000
.********************************************************************** 00350000
.*                                                                    * 00400000
.*                                                                    * 00442800
.* COPYRIGHT =                                                        * 00485600
.*               5740-XC6                                             * 00528400
.*               THIS MODULE IS "RESTRICTED MATERIALS OF IBM"         * 00571200
.*               (C) COPYRIGHT IBM CORP. 1977, 1984                   * 00614000
.*               LICENSED MATERIALS - PROPERTY OF IBM                 * 00656800
.*                                                                    * 00700000
.*    STATUS = OS/VS2 JBB2133                                     @H1C* 00750000
.*                                                                    * 00800000
.*    MACMEAN = SET UP FUNCTIONAL RECOVERY ROUTINES           @G860P1C* 00850000
.*              SYSTEM 370 COMPATIBLE LEVEL                   @G860P1C* 00900000
.*                                                                    * 00950000
.*     THE SETFRR MACRO EXPANSION GENERATES CODE WHICH MANIPULATES A  * 01000000
.*     STACK WHEN INLINE=YES IS SPECIFIED.  WHEN INLINE=YES   @G381P2F* 01050000
.*     IS NOT SPECIFIED, THE SETFRR MACRO EXPANSION           @G381P2F* 01100000
.*     GENERATES CODE WHICH CALLS IEAVTSFR TO MANIPULATE      @G381P2F* 01150000
.*     THE CURRENT STACK.                                             * 01200000
.*                                                                    * 01500000
.*                                                                    * 01525000
.*   THERE  ARE TWO STACKS WHICH CAN BE MANIPULATED VIA THE SETFRR    * 01550000
.*   MACRO                                                            * 01600000
.*         1. A STACK FOR FRRS  RUNNING IN SUPERVISOR CONTROL MODE    * 01650000
.*         2. A STACK FOR FRRS RUNNING IN NON-SUPERVISOR CONTROL MODE * 01700000
.*                                                                    * 01750000
.*   THE HEADER FORMAT FOR EACH OF THESE STACKS IS AS FOLLOWS         * 01800000
.*                                                                    * 01850000
.*      NON-SUPERVISOR CONTROL STACK HEADER FORMAT                    * 01900000
.*                                                                    * 01950000
.*       ***********************************************              * 02000000
.*       * ADDRESS OF STACK - 32 BYTES                 *              * 02050000
.*       ***********************************************              * 02100000
.*       *    ADDRESS OF LAST ENTRY IN THE STACK       *              * 02150000
.*       ***********************************************              * 02200000
.*       *  LENGTH OF EACH ENTRY IN THE STACK  (32)    *              * 02250000
.*       ***********************************************              * 02300000
.*       *ADDRESS OF CURRENT FRR ADDRESS IN THE STACK  *              * 02350000
.*       *(INITIALIZED TO THE ADDRESS OF STACK - 32)   *              * 02400000
.*       ***********************************************              * 02450000
.*                                                                    * 02500000
.*      SUPERVISOR CONTROL STACK HEADER FORMAT                        * 02550000
.*                                                                    * 02600000
.*       ***********************************************              * 02650000
.*       * ADDRESS OF STACK                            *              * 02700000
.*       ***********************************************              * 02750000
.*       *    ADDRESS OF LAST ENTRY IN THE STACK       *              * 02800000
.*       ***********************************************              * 02850000
.*       *  LENGTH OF EACH ENTRY IN THE STACK  (32)    *              * 02900000
.*       ***********************************************              * 02950000
.*       *ADDRESS OF CURRENT FRR ADDRESS IN THE STACK  *              * 03000000
.*       *(INITIALIZED TO THE ADDRESS OF THE STACK )   *              * 03050000
.*       ***********************************************              * 03100000
.*                                                                    * 03150000
.* PRIOR TO ISSUING SETFRR THE USER MUST HAVE PERFORMED THE FOLLOWING * 03200000
.*     1.  ESTABLISHED ADDRESSABILITY TO THE PSA(THE FIRST            * 03250000
.*         INSTRUCTION GENERATED BY THE SETFRR EXPANSION REFERENCES   * 03300000
.*         THE PSACSTK FIELD OF THE PSA)                              * 03350000
.*                                                                    * 03400000
.*     2.  HAVE ISSUED THE FRR STACK MAPPING MACRO(IHAFRRS)           * 03450000
.*                                                                    * 03500000
.* CHANGE-ACTIVITY                                            @G381P2F* 03550000
.*         MVS/SYSTEM PRODUCT RELEASE 2 2/21/79               @G381P2F* 03600000
.*                 CROSS MEMORY PARAMETERS (MODE,EUT)         @G381P2F* 03650000
.*                 INTRODUCED OUT-OF-LINE CODE (INLINE)       @G381P2F* 03700000
.*                 RACE CONDITION FIXED                       @G381P2F* 03750000
.*                 INTRODUCED ADD FRR INSTRUCTION (SETFRRI) 4/17/80   * 03800000
.*                                                            @G38LP1S* 03850000
.*                 - USE LA TO OBTAIN NORMAL STACK ADDRESS    @ZM49899* 03900000
.*                 - ADDED OPT2 TO CATCH MISSING PARENS AND   @ZM50139* 03950000
.*                 FIXED OVERFLOW OF COMMENTS WHEN SYMBOLIC   @ZM50139* 04000000
.*                 NAMES ARE USED IN WRKREGS  4/24/79         @ZM50139* 04050000
.*                 - ON ADDFLUSH, CHANGED THE LOAD ADDRESS    @ZMB0044* 04100000
.*                 OF FRRSENTS TO AN ADD OF FRRSELEN TO REG 1 @ZMB0044* 04150000
.*                 TO ADDRESS THE FIRST ENTRY 8/29/79         @ZMB0044* 04200000
.*      $H1=ADVPROC1,JBB2133,830103,PDXB: REMOVE ASSIST SUPPORT       * 04225000
.*                                                                    * 04250000
.********************************************************************** 04300000
      LCLA    &CTRLNK                                          @G381P2F 04350000
      LCLA    &I                                               @G381P2F 04400000
      LCLA    &J                                               @G381P2F 04450000
      LCLA    &MODFLG                                          @G381P2F 04500000
      LCLB    &B(5)                                            @G381P2F 04550000
      LCLC    &R1                                                       04600000
      LCLC    &R2                                                       04650000
      LCLC    &R3                                                       04700000
      LCLC    &R4                                                       04750000
         LCLC  &LABEL                                          @G38LP1S 04800000
         LCLC  &LABELA,&LABELB                                 @G38LP1S 04850000
         LCLC  &RX,&RY,&T                                      @G38LP1S 04900000
&J    SETA    N'&MODE                                          @G381P2F 04950000
.*    VERIFY THAT THERE ARE NO POSITIONAL PARAMETERS OTHER     @ZM50139 05000000
.*    THAN OPTION,  THIS COULD OCCUR IF MODE WAS SPECIFIED     @ZM50139 05050000
.*    WITH MORE THAN ONE PARAMETER AND PARENTHESIS WERE NOT    @ZM50139 05100000
.*    USED                                                     @ZM50139 05150000
      AIF    ('&OPT2' NE '').MSG12                             @ZM50139 05200000
         AIF   ('&ASSIST' NE 'YES').ASSTOK   SKIP IF ASSIST NOT WANTED X05400000
                                                               @G38LP1S 05450000
         MNOTE  8,'SETFRR ASSIST NOT SUPPORTED'                    @H1A 05500000
         AGO   .END                     LEAVE MACRO                @H1A 05550000
.*                                                                8@H1D 05600000
.ASSTOK  ANOP  ,                                               @G38LP1S 05900000
.*    VERIFY VALID OPTION SPECIFIED FOR CLEAR KEYWORD                   05950000
.C1   AIF    ('&CLEAR' EQ '' OR '&CLEAR' EQ 'Y' OR '&CLEAR' EQ 'N').C2  06000000
      AIF    ('&CLEAR' EQ 'YES' OR '&CLEAR' EQ 'NO').C2                 06050000
      AIF    ('&OPT' EQ 'A').CLEARY                            @G38LP2F 06100000
.*    DEFAULT FOR REPLACE AND ADDFLUSH IS CLEAR=NO             @G38LP2F 06150000
      MNOTE  0,'INVALID CLEAR OPTION, CLEAR=NO ASSUMED'        @G38LP2F 06200000
         AGO      .C2                                          @G38LP2F 06250000
.CLEARY  ANOP  ,                                               @G38LP2F 06300000
.*    DEFAULT FOR ADD IS CLEAR=YES                             @G38LP2F 06350000
      MNOTE  0,'INVALID CLEAR OPTION, CLEAR=YES ASSUMED'       @G38LP2F 06400000
         AGO      .C2                                                   06450000
.C4      MNOTE      8,'** PARMAD MUST BE SPECIFIED WITH CLEAR OPTION'   06500000
         MEXIT                                                          06550000
.C2      AIF       ('&CLEAR' NE '' AND '&PARMAD' EQ '').C4              06600000
         AIF       ('&WRKREGS' EQ '').MSG1            CHECK TO SEE IF   06650000
.*                                                    WORK REGISTERS    06700000
.*                                                    ARE SPECIFIED     06750000
         AIF   ('&INLINE' EQ 'NO' OR '&INLINE' EQ 'N').OUTLINE          06800000
.*                                          BRANCH IF INLINE=YES WAS    06850000
.*                                          NOT SPECIFIED      @G381P2F 06900000
         AIF   ('&INLINE' NE 'YES' AND '&INLINE' NE 'Y').MSG9           06950000
.*                                          ISSUE MESSAGE IF &INLINE    07000000
.*                                          IS SPECIFIED INCORRECTLY    07050000
.*                                                             @G381P2F 07100000
         AIF   ('&MODE' NE '' AND '&MODE(1)' NE 'HOME').MSG7   @G381P2F 07150000
         AIF   ('&MODE' NE '' AND &J GT 1).MSG7                @G381P2F 07200000
.*                                          ISSUE MESSAGE IF &MODE      07250000
.*                                          IS SPECIFIED INCORRECTLY    07300000
.*                                          WITH INLINE=YES    @G381P2F 07350000
         AIF   ('&EUT' NE '').MSG6                             @G381P2F 07400000
.*                                          ISSUE MESSAGE IF &EUT       07450000
.*                                          IS SPECIFIED WITH           07500000
.*                                          INLINE=YES         @G381P2F 07550000
         AIF       ('&WRKREGS'(1,1) NE '(' OR N'&WRKREGS NE 2).MSG2     07600000
.*                                                    IF &WRKREGS IS    07650000
.*                                                    SPECIFIED BUT     07700000
.*                                                    INVALIDLY ISSUE   07750000
.*                                                    ERROR MESSAGE.    07800000
.*    SET UP LOCAL CHARACTER FOR USE IN EXPANSIONS                      07850000
&R1    SETC    '&WRKREGS(1)'                                            07900000
&R2    SETC    '&WRKREGS(2)'                                            07950000
&R3    SETC    '&PARMAD(1)'                                             08000000
&R4    SETC    '&FRRAD(1)'                                              08050000
.*                                                    OTHERWISE CHECK   08100000
.*                                                    &OPT FOR A VALID  08150000
.*                                                    OPTION            08200000
         AIF       ('&OPT' EQ 'A' OR '&OPT' EQ 'R').ADREP               08250000
         AIF       ('&OPT' EQ 'D' OR '&OPT' EQ 'P').EXPAND              08300000
         AIF       ('&OPT' EQ 'F').FLUSH                                08350000
         AIF       ('&OPT' EQ 'AF').ADFL  ADD/FLUSH OPTION              08400000
.INVOPT  MNOTE     12,'INVALID OPTION &OPT SPECIFIED'          @G38LP1S 08450000
.*                                                    MESSAGE STATING   08500000
.*                                                    INVALID OPTION    08550000
         AGO       .END                               STOP EXPANSION    08600000
.ADREP   AIF       ('&FRRAD' EQ '').MSG3              ISSUE MESSAGE IF  08650000
.*                                                    &FRRAD  IS NOT    08700000
.*                                                    SPECIFIED FOR     08750000
.*                                                    THE ADD/REPLACE   08800000
.*                                                    OPTION            08850000
         AGO       .EXPAND1                                             08900000
.EXPAND  ANOP                                         BEGIN EXPANSION   08950000
         AIF       ('&FRRAD' NE '' OR '&PARMAD' NE '').WARN             09000000
         AGO       .EXPAND1                                             09050000
.WARN    MNOTE     *,'FRRAD AND/OR PARMAD SPECIFIED FOR DELETE/PURGE'   09100000
         MNOTE     0,'FRRAD AND/OR PARMAD IGNORED-DELETE/PURGE HONORED' 09150000
.*                                                             @G38LP2F 09200000
.EXPAND1 ANOP                                                           09250000
&NAME    L     &R1,PSACSTK-PSA(0,0)         ADDRESS OF CURRENT STACK    09300000
         AIF       ('&OPT' EQ 'P').PURGE              GO EXPAND FOR A   09350000
.*                                                    PURGE OF THE FRR  09400000
.*                                                    STACK             09450000
         AIF       ('&OPT' EQ 'A').ADD   GO TO ADD ROUTINE              09500000
         L     &R2,FRRSCURR-FRRS(0,&R1)     ADDR OF CURRENT             09550000
*                                           ELEMENT                     09600000
         CL    &R2,FRRSEMP-FRRS(0,&R1)      IS THE FRR STACK EMPTY      09650000
         AIF       ('&OPT' EQ 'R').BRANCH             IF OPTION IS      09700000
.*                                                    REPLACE EXPAND    09750000
.*                                                    AT .BRANCH        09800000
         BE    *+12                         YES, DO NOT DELETE ENTRY    09850000
         SL    &R2,FRRSELEN-FRRS(0,&R1)     DECREMENT CURRENT           09900000
*                                           ADDRESS                     09950000
         AGO       .UPDATE                                              10000000
.ADD     L     &R2,FRRSELEN-FRRS(0,&R1)     LENGTH OF FRR STACK         10050000
*                                           ENTRY              @G381P2F 10100000
.*                                          (USE FRRSELEN INSTEAD OF    10150000
.*                                           OF 32)            @G381P2F 10200000
         AL    &R2,FRRSCURR-FRRS(0,&R1)     COMPUTE NEXT ENTRY          10250000
*                                           ADDRESS                     10300000
         CL    &R2,FRRSLAST-FRRS(0,&R1)     WILL STACK OVERFLOW         10350000
         BH    PSALSFCC-PSA(0,0)            YES, ISSUE 07D ABEND        10400000
         AGO       .COMMON1                                             10450000
.BRANCH  BNE   *+8                          NO, SKIP UPDATE    @G381P2F 10500000
.COMMON  AL    &R2,FRRSELEN-FRRS(0,&R1)     COMPUTE NEXT ENTRY ADDR     10550000
.COMMON1 ANOP                                                  @G381P2F 10600000
         AIF        ('&FRRAD'(1,1) EQ '(').STFRR                        10650000
         AIF        (T'&FRRAD EQ 'N').MSG4                              10700000
         MVC   FRRSFRRA-FRRSENTR(4,&R2),&FRRAD  PUT FRR ADDRESS         10750000
*                                               INTO THE STACK @G381P2F 10800000
         AGO         .PMCHK                                             10850000
.STFRR   ST    &R4,FRRSFRRA-FRRSENTR(0,&R2) ADD ADDR TO STACK           10900000
.PMCHK   AIF    ('&PARMAD' EQ '' ).UPDATE                      @G381P2F 10950000
.*                             DETERMINE IF PARMS ARE SPECIFIED         11000000
         AIF        ('&PARMAD'(1,1) EQ '(').LPARM                       11050000
         AIF        (T'&PARMAD EQ 'N').MSG4                             11100000
         AIF     ('&OPT' EQ 'R' AND '&CLEAR' EQ 'Y').C5                 11150000
         AIF     ('&OPT' EQ 'R' AND '&CLEAR' EQ 'YES').C5               11200000
         AIF       ('&OPT' NE 'A').NOZERO1            IS THIS THE       11250000
.*                                                    ADD OPTION        11300000
.*                                                   YES DO FOLLOWING   11350000
         AIF   ('&CLEAR' EQ 'N' OR '&CLEAR' EQ 'NO').NOZERO1            11400000
.C5      XC    FRRSPARM-FRRSENTR(24,&R2),FRRSPARM-FRRSENTR(&R2)         11450000
*                                           ZERO FRR PARM AREA          11500000
.NOZERO1 ST    &R2,FRRSCURR-FRRS(0,&R1)     UPDATE CURRENT              11550000
*                                           ENTRY ADDRESS      @G381P2F 11600000
         LA    &R2,FRRSPARM-FRRSENTR(0,&R2) RETURN PARM AREA            11650000
         ST    &R2,&PARMAD                  ADDRESS TO USER             11700000
         AGO        .END                                                11750000
.LPARM   ANOP                                                           11800000
         AIF      ('&OPT' EQ 'R' AND '&CLEAR' EQ 'Y').C6                11850000
         AIF      ('&OPT' EQ 'R' AND '&CLEAR' EQ 'YES').C6              11900000
         AIF       ('&OPT' NE 'A').NOZERO2            IS THIS THE       11950000
.*                                                    ADD OPTION        12000000
.*                                                   YES DO FOLLOWING   12050000
         AIF   ('&CLEAR' EQ 'N' OR '&CLEAR' EQ 'NO').NOZERO2            12100000
.C6      XC    FRRSPARM-FRRSENTR(24,&R2),FRRSPARM-FRRSENTR(&R2)         12150000
*                                           ZERO FRR PARM AREA          12200000
.NOZERO2 ST    &R2,FRRSCURR-FRRS(0,&R1)     UPDATE CURRENT              12250000
*                                           ENTRY ADDRESS      @G381P2F 12300000
         LA    &R3,FRRSPARM-FRRSENTR(0,&R2) ADDR OF PARM AREA           12350000
         AGO       .END                                                 12400000
.PURGE   L     &R2,FRRSEMP-FRRS(0,&R1)      LOAD EMPTY STACK ADDR       12450000
.UPDATE  ST    &R2,FRRSCURR-FRRS(0,&R1)     UPDATE CURRENT STACK        12500000
*                                           ENTRY                       12550000
         AIF       ('&OPT' NE 'P').END      FINISHED IF NOT             12600000
*                                           PURGE              @G382P2F 12650000
         CL    &R1,PSANSTK-PSA(0,0)         IS THIS THE NORMAL          12700000
*                                           STACK              @G382P2F 12750000
         BNE   *+8                          NO, BRANCH         @G382P2F 12800000
         NI    PSAMFLGS-PSA(0),X'7F'        ENSURE PSANSS FLAG          12850000
*                                           IS OFF             @G382P2F 12900000
         AGO       .END                                                 12950000
.FLUSH   ANOP                                                           13000000
&NAME    L     &R1,PSASTAK-PSA(0,0)               NORMAL STACK PTR      13050000
         ST    &R1,PSASTAK-PSA+FRRSCURR-FRRS(0,0) PURGE STACK           13100000
         MVI   PSASTAK-PSA+FRRSRTMW-FRRS(0),X'00' ZERO RECURSION BYTE   13150000
         NI    PSAMFLGS-PSA(0),X'7F'             ENSURE PSANSS          13200000
*                                                FLAG IS OFF   @G381P2F 13250000
         AGO   .END                                                     13300000
.ADFL    ANOP                                                           13350000
         AIF   ('&FRRAD' EQ '').MSG3  INSURE FRR AD IS SPECIFIED        13400000
         AIF   ('&FRRAD'(1,1) EQ '(').B10                               13450000
         AIF   (T'&FRRAD EQ 'N').MSG4                                   13500000
&R4      SETC  '&WRKREGS(2)'   SET WORK REG                             13550000
&NAME    L     &R4,&FRRAD                        LOAD FRR ADDRESS       13600000
         MVI   PSASTAK-PSA+FRRSRTMW-FRRS(0),0    ZERO RECURSION BYTE    13650000
         AGO  .B11                                                      13700000
.B10     ANOP                                                           13750000
&NAME    MVI   PSASTAK-PSA+FRRSRTMW-FRRS(0),0    ZERO RECURSION BYTE    13800000
.B11     NI    PSAMFLGS-PSA(0),X'7F'             ENSURE PSANSS          13850000
*                                                FLAG IS OFF   @G381P2F 13900000
         L     &R1,PSASTAK-PSA+FRRSEMP-FRRS(,0)  EMPTY STACK ADDRESS    13950000
*                                                              @G381P2F 14000000
         ST    &R1,PSASTAK-PSA+FRRSCURR-FRRS(,0) RESET STACK            14050000
         AL    &R1,PSASTAK-PSA+FRRSELEN-FRRS(,0) FIRST ENTRY ADDRESS    14100000
*                                                              @ZMB0044 14150000
         ST    &R4,FRRSFRRA-FRRSENTR(0,&R1)      ADD ADDRESS TO STACK   14200000
         AIF   ('&PARMAD' EQ '').C14    IF NO PARMS REQUEST BRANCH      14250000
.*                                      TO RESET THE STACK     @G381P2F 14300000
         AIF    ('&CLEAR' NE 'Y' AND '&CLEAR' NE 'YES').C14    @G381P2F 14350000
         XC    FRRSPARM-FRRSENTR(24,&R1),FRRSPARM-FRRSENTR(&R1)         14400000
*                                                CLEAR PARM AREA        14450000
.C14     ST    &R1,PSASTAK-PSA+FRRSCURR-FRRS(,0) RESET STACK            14500000
*                                                              @G381P2F 14550000
         AIF   ('&PARMAD' EQ '').END   FINISHED IF NO PARMS REQUEST     14600000
.*                                                             @G381P2F 14650000
         AIF   ('&PARMAD'(1,1) EQ '(').C10                              14700000
         AIF   (T'&PARMAD EQ 'N').MSG4                                  14750000
         AGO   .C13                                                     14800000
.C10     LA    &R3,FRRSPARM-FRRSENTR(0,&R1)      FRR PARM ADDRESS       14850000
         AGO   .END                                                     14900000
.C13     LA    &R2,FRRSPARM-FRRSENTR(0,&R1)      FRR PARM ADDRESS       14950000
         ST    &R2,&PARMAD                       RETURN TO USER         15000000
         AGO   .END                                                     15050000
.*                                        ***************************   15100000
.OUTLINE ANOP                                                  @G381P2F 15150000
.*                                        FOLLOWING IS CODE TO          15200000
.*                                        BRANCH TO IEAVTSFR   @G381P2F 15250000
.*                                        AND PERFORM ADD FRR  @G38LP1S 15300000
.*                                        INSTRUCTION          @G38LP1S 15350000
.*                                                                      15400000
.*    SET UP LOCAL CHARACTER FOR USE IN EXPANSIONS                      15450000
&I       SETA  1                 INIT INDEX FOR MODE           @G381P2F 15500000
&MODFLG  SETA  0                 INIT MODE FLAGS               @G381P2F 15550000
&CTRLNK  SETA  0                 INIT BRANCH TABLE CTR         @G381P2F 15600000
&B(1)    SETB  0                 INIT MODE=HOME IND            @G381P2F 15650000
&B(2)    SETB  0                 INIT MODE=FULLXM IND          @G381P2F 15700000
&B(3)    SETB  0                 INIT MODE=PRIMARY IND         @G381P2F 15750000
&B(4)    SETB  0                 INIT MODE=LOCAL IND           @G381P2F 15800000
&B(5)    SETB  0                 INIT MODE=GLOBAL IND          @G381P2F 15850000
&R1      SETC  '&WRKREGS(1)'                                   @G381P2F 15900000
&R3      SETC  '&PARMAD(1)'                                    @G381P2F 15950000
&R4      SETC  '&FRRAD(1)'                                     @G381P2F 16000000
.*                                                    OTHERWISE CHECK   16050000
.*                                                    &OPT FOR A VALID  16100000
.*                                                    OPTION            16150000
         AIF       ('&OPT' EQ 'A' OR '&OPT' EQ 'R').ADREP2     @G381P2F 16200000
         AIF       ('&OPT' EQ 'D' OR '&OPT' EQ 'P').EXPAND2    @G381P2F 16250000
         AIF       ('&OPT' EQ 'F').FLUSH2                      @G381P2F 16300000
         AIF       ('&OPT' EQ 'AF').ADFL2  ADD/FLUSH OPTION    @G381P2F 16350000
         MNOTE     12,'INVALID OPTION &OPT SPECIFIED'                   16400000
.*                                                    MESSAGE STATING   16450000
.*                                                    INVALID OPTION    16500000
         AGO       .END                               STOP EXPANSION    16550000
.*                                                                      16600000
.ADREP2  ANOP                              SYNTAX CHECK FOR ADD         16650000
.*                                         AND REPLACE         @G381P2F 16700000
.*                                                                      16750000
         AIF       ('&FRRAD' EQ '').MSG3              ISSUE MESSAGE IF  16800000
.*                                                    &FRRAD  IS NOT    16850000
.*                                                    SPECIFIED FOR     16900000
.*                                                    THE ADD/REPLACE   16950000
.*                                                    OPTION   @G381P2F 17000000
         AIF       ('&MODE' NE '').MODELP  CHECK MODE          @G381P2F 17050000
&B(1)    SETB      1                      IND HOME DEFAULTED   @G381P2F 17100000
         AGO       .CHKEUT                                              17150000
.MODELP  ANOP                              MODE LOOP WILL SCAN THE      17200000
.*                                         MODE OPTIONS, SYNTAX CHECK   17250000
.*                                         AND INDICATE THE OPTIONS     17300000
.*                                         CHOSEN              @G381P2F 17350000
         AIF       ('&MODE(&I)' NE 'HOME').FULL  IF NOT HOME, CHECK     17400000
.*                                               FOR FULLXM    @G381P2F 17450000
         AIF       (&B(2) OR &B(3)).MSG10  ISSUE MESSAGE IF FULLXM OR   17500000
.*                                         PRIMARY HAS ALSO BEEN        17550000
.*                                         SPECIFIED           @G381P2F 17600000
&B(1)    SETB      1                       IND HOME SPEC       @G381P2F 17650000
         AGO       .INITLP                                     @G381P2F 17700000
.FULL    ANOP                                                  @G381P2F 17750000
         AIF       ('&MODE(&I)' NE 'FULLXM').PRIM IF NOT FULLXM,CHECK   17800000
.*                                               FOR PRIMARY   @G381P2F 17850000
         AIF       (&B(2)).INITLP          IGNORE IF FULLXM WAS         17900000
.*                                         SPECIFIED BEFORE    @G381P2F 17950000
         AIF       (&B(1) OR &B(3)).MSG10  ISSUE MESSAGE IF HOME OR     18000000
.*                                         PRIMARY HAS ALSO BEEN        18050000
.*                                         SPECIFIED           @G381P2F 18100000
&MODFLG  SETA      &MODFLG+8               IND FULLXM          @G381P2F 18150000
&B(2)    SETB      1                       IND FULLXM SPEC     @G381P2F 18200000
         AGO       .INITLP                                     @G381P2F 18250000
.PRIM    ANOP                                                  @G381P2F 18300000
         AIF       ('&MODE(&I)' NE 'PRIMARY').LCL IF NOT PRIMARY, CHK   18350000
.*                                                FOR LOCAL    @G381P2F 18400000
         AIF       (&B(3)).INITLP          IGNORE IF PRIMARY WAS        18450000
.*                                         SPECIFIED BEFORE    @G381P2F 18500000
         AIF       (&B(1) OR &B(2)).MSG10  ISSUE MESSAGE IF HOME OR     18550000
.*                                         FULLXM HAS ALSO BEEN         18600000
.*                                         SPECIFIED           @G381P2F 18650000
&MODFLG  SETA      &MODFLG+4               IND PRIMARY         @G381P2F 18700000
&B(3)    SETB      1                       IND PRIMARY SPEC    @G381P2F 18750000
         AGO       .INITLP                                     @G381P2F 18800000
.LCL     ANOP                                                  @G381P2F 18850000
         AIF       ('&MODE(&I)' NE 'LOCAL').GLB  IF NOT LOCAL, CHECK    18900000
.*                                               FOR GLOBAL    @G381P2F 18950000