*                                                                       00050000
*%/* IF PLS, EXCLUDE THE BAL FORM OF THE MACRO                          00100000
         MACRO                                                          00150000
&NAME    SETFRR    &OPT,&FRRAD=,&PARMAD=,&WRKREGS=,&RELATED=,&CLEAR=,  C00200000
               &MODE=,&EUT=,&INLINE=NO,&ASSIST=NO,&AMODE=CALLER,       C00250000
               &CANCEL=,&OPT2                                     @D1A  00300000
.*                                                                      00350000
.********************************************************************** 00400000
.*                                                                    * 00450000
.*   COPYRIGHT =                                                      * 00483300
.*               5685-001                                             * 00516600
.*               THIS MODULE IS "RESTRICTED MATERIALS OF IBM"         * 00550000
.*               (C) COPYRIGHT IBM CORP. 1980,1988                    * 00600000
.*               LICENSED MATERIALS - PROPERTY OF IBM                 * 00650000
.*                                                                    * 00800000
.*   STATUS = HBB3310                                                 * 00850000
.*                                                                    * 00900000
.*     THE SETFRR MACRO EXPANSION GENERATES CODE WHICH MANIPULATES A  * 00950000
.*     STACK WHEN INLINE=YES IS SPECIFIED.  WHEN INLINE=YES   @G381P2F* 01000000
.*     IS NOT SPECIFIED, THE SETFRR MACRO EXPANSION           @G381P2F* 01050000
.*     GENERATES CODE WHICH CALLS IEAVTSFR TO MANIPULATE      @G381P2F* 01100000
.*     THE CURRENT STACK.                                         @H1C* 01150000
.*                                                                    * 01200000
.*   THERE  ARE TWO STACKS WHICH CAN BE MANIPULATED VIA THE SETFRR    * 01250000
.*   MACRO                                                            * 01300000
.*         1. A STACK FOR FRRS  RUNNING IN SUPERVISOR CONTROL MODE    * 01350000
.*         2. A STACK FOR FRRS RUNNING IN NON-SUPERVISOR CONTROL MODE * 01400000
.*                                                                    * 01450000
.*   THE HEADER FORMAT FOR EACH OF THESE STACKS IS AS FOLLOWS         * 01500000
.*                                                                    * 01550000
.*      NON-SUPERVISOR CONTROL STACK HEADER FORMAT                    * 01600000
.*                                                                    * 01650000
.*       ***********************************************              * 01700000
.*       * ADDRESS OF STACK - 32 BYTES                 *              * 01750000
.*       ***********************************************              * 01800000
.*       *    ADDRESS OF LAST ENTRY IN THE STACK       *              * 01850000
.*       ***********************************************              * 01900000
.*       *  LENGTH OF EACH ENTRY IN THE STACK  (32)    *              * 01950000
.*       ***********************************************              * 02000000
.*       *ADDRESS OF CURRENT FRR ADDRESS IN THE STACK  *              * 02050000
.*       *(INITIALIZED TO THE ADDRESS OF STACK - 32)   *              * 02100000
.*       ***********************************************              * 02150000
.*                                                                    * 02200000
.*      SUPERVISOR CONTROL STACK HEADER FORMAT                        * 02250000
.*                                                                    * 02300000
.*       ***********************************************              * 02350000
.*       * ADDRESS OF STACK                            *              * 02400000
.*       ***********************************************              * 02450000
.*       *    ADDRESS OF LAST ENTRY IN THE STACK       *              * 02500000
.*       ***********************************************              * 02550000
.*       *  LENGTH OF EACH ENTRY IN THE STACK  (32)    *              * 02600000
.*       ***********************************************              * 02650000
.*       *ADDRESS OF CURRENT FRR ADDRESS IN THE STACK  *              * 02700000
.*       *(INITIALIZED TO THE ADDRESS OF THE STACK )   *              * 02750000
.*       ***********************************************              * 02800000
.*                                                                    * 02850000
.* PRIOR TO ISSUING SETFRR THE USER MUST HAVE PERFORMED THE FOLLOWING * 02900000
.*     1.  ESTABLISHED ADDRESSABILITY TO THE PSA(THE FIRST            * 02950000
.*         INSTRUCTION GENERATED BY THE SETFRR EXPANSION REFERENCES   * 03000000
.*         THE PSACSTK FIELD OF THE PSA)                              * 03050000
.*                                                                    * 03100000
.*     2.  HAVE ISSUED THE FRR STACK MAPPING MACRO(IHAFRRS)           * 03150000
.*                                                                    * 03200000
.* CHANGE-ACTIVITY                                            @G381P2F* 03350000
.*         MVS/SYSTEM PRODUCT RELEASE 2 2/21/79               @G381P2F* 03400000
.*                 CROSS MEMORY PARAMETERS (MODE,EUT)         @G381P2F* 03450000
.*                 INTRODUCED OUT-OF-LINE CODE (INLINE)       @G381P2F* 03500000
.*                 RACE CONDITION FIXED                       @G381P2F* 03550000
.*                 INTRODUCED ADD FRR INSTRUCTION (SETFRRI) 4/17/80   * 03600000
.*                                                            @G38LP1S* 03650000
.*                 - USE LA TO OBTAIN NORMAL STACK ADDRESS    @ZM49899* 03700000
.*                 - ADDED OPT2 TO CATCH MISSING PARENS AND   @ZM50139* 03750000
.*                 FIXED OVERFLOW OF COMMENTS WHEN SYMBOLIC   @ZM50139* 03800000
.*                 NAMES ARE USED IN WRKREGS  4/24/79         @ZM50139* 03850000
.*                 - ON ADDFLUSH, CHANGED THE LOAD ADDRESS    @ZMB0044* 03900000
.*                 OF FRRSENTS TO AN ADD OF FRRSELEN TO REG 1 @ZMB0044* 03950000
.*                 TO ADDRESS THE FIRST ENTRY 8/29/79         @ZMB0044* 04000000
.*         MVS/SYSTEM PRODUCT VERSION 2 RELEASE 1             @G860P1S* 04050000
.*                 - ADDED THE AMODE = CALLER OR DEFINED TO   @G860P1F* 04100000
.*                   THE INLINE SETFRR WITH THE AF(ADD-FLUSH) @G860P1F* 04150000
.*                   OPTION FOR USE BY THE DISPATCHER.        @G860P1F* 04200000
.*      $L1=RTM1REC ,JBB2125,821203,PDA8: INVOKE SETFRRP IN PL/S  @L1A* 04250000
.*      $H1=ADVPROC1,JBB2133,830103,PDXB: REMOVE ASSIST SUPPORT   @H1A* 04300000
.*      $L2=AR      ,HBB3310,851101,PDXB: AR SUPPORT                  * 04350000
.*      $D1=DCR0059 ,HBB3310,861029,PDU8: CANCEL KEYWORD SUPPORT  @D1A* 04375000
.*                                                                    * 04400000
.********************************************************************** 04450000
         GBLC  &SYSSPLV                                        @G860P1C 04500000
      SPLEVEL TEST                     INVOKE SPLEVEL MACRO    @G860P1C 04550000
      AIF    ('&SYSSPLV' EQ '1').S370  S/370 LEVEL REQUESTED?  @G860P1C 04600000
      LCLC    &LA                 HOLDS LA OR LAE BY SPLEVEL       @L2A 04650000
      LCLC    &LAA                HOLDS LA OR LAE BY SYSSTATE      @L2A 04700000
&LA   SETC    'LA'                LA INSTRUCTION FOR SP2           @L2A 04750000
&LAA  SETC    'LA'                ASSUME TO USE LA INSTRUCTION     @L2A 04800000
      GBLC     &SYSASCE           ASC ENVIRONMENT                  @L2A 04950000
      SYSSTATE TEST               WHAT IS ASC ENVIRONMENT          @L2A 05000000
      AIF ('&SYSASCE' EQ 'P').USEPRIM PRIMARY, PROCESS NORMALLY    @L2A 05100000
&LA   SETC    'LAE'               USE LAE INSTRUCTION              @L2A 05125000
&LAA  SETC    'LAE'               AR/ANY -- USE LAE INSTRUCTION    @L2A 05150000
.USEPRIM ANOP                                                      @L2A 05200000
*    MACDATE    11/01/85                                           @L2C 05250000
      LCLA    &CTRLNK                                          @G381P2F 05300000
      LCLA    &I                                               @G381P2F 05350000
      LCLA    &J                                               @G381P2F 05400000
      LCLA    &MODFLG                                          @G381P2F 05450000
      LCLB    &B(5)                                            @G381P2F 05500000
      LCLC    &R1                                                       05550000
      LCLC    &R2                                                       05600000
      LCLC    &R3                                                       05650000
      LCLC    &R4                                                       05700000
         LCLC  &LABEL                                          @G38LP1S 05750000
         LCLC  &RX,&RY,&T                                      @G38LP1S 05800000
&J    SETA    N'&MODE                                          @G381P2F 05850000
.*    VERIFY THAT THERE ARE NO POSITIONAL PARAMETERS OTHER     @ZM50139 05900000
.*    THAN OPTION,  THIS COULD OCCUR IF MODE WAS SPECIFIED     @ZM50139 05950000
.*    WITH MORE THAN ONE PARAMETER AND PARENTHESIS WERE NOT    @ZM50139 06000000
.*    USED                                                     @ZM50139 06050000
      AIF    ('&OPT2' NE '').MSG12                             @ZM50139 06100000
         AIF   ('&ASSIST' NE 'YES').ASSTOK   SKIP IF ASSIST NOT WANTED X06150000
                                                               @G38LP1S 06200000
         MNOTE  8,'SETFRR ASSIST NOT SUPPORTED'                    @H1A 06250000
         AGO   .END                     LEAVE MACRO                @H1A 06300000
.*                                                                8@H1D 06350000
.ASSTOK  ANOP  ,                                               @G38LP1S 06400000
.*                                                             @G860P1F 06450000
.*       THE AMODE = DEFINED IS ONLY ALLOWED FOR THE INLINE    @G860P1F 06500000
.*       SETFRR WITH THE AF(ADD-FLUSH) OPTION. THE DISPATCHER  @G860P1F 06550000
.*       IS THE ONLY USER OF IT.                               @G860P1F 06600000
.*                                                             @G860P1F 06650000
         AIF   ('&AMODE' EQ 'CALLER').AMODECL SKIP IF CALLER           X06700000
                                              IS SPECIFIED     @G860P1F 06750000
         AIF   ('&AMODE' NE 'DEFINED').MSG14 INVALID OPTION -          X06800000
                                              ISSUE A MESSAGE  @G860P1F 06850000
         AIF   ('&OPT' NE 'AF').MSG15  ADD-FLUSH IS REQUIRED   @G860P1F 06900000
         AIF   ('&INLINE' NE 'YES' AND '&INLINE' NE 'Y').MSG9          X06950000
                                      INLINE = YES IS REQUIRED @G860P1F 07000000
.AMODECL ANOP  ,                                               @G860P1F 07050000
.*    VERIFY VALID OPTION SPECIFIED FOR CLEAR KEYWORD                   07100000
.C1   AIF    ('&CLEAR' EQ '' OR '&CLEAR' EQ 'Y' OR '&CLEAR' EQ 'N').C2  07150000
      AIF    ('&CLEAR' EQ 'YES' OR '&CLEAR' EQ 'NO').C2                 07200000
      AIF    ('&OPT' EQ 'A').CLEARY                            @G38LP2F 07250000
.*    DEFAULT FOR REPLACE AND ADDFLUSH IS CLEAR=NO             @G38LP2F 07300000
      MNOTE  0,'INVALID CLEAR OPTION, CLEAR=NO ASSUMED'        @G38LP2F 07350000
         AGO      .C2                                          @G38LP2F 07400000
.CLEARY  ANOP  ,                                               @G38LP2F 07450000
.*    DEFAULT FOR ADD IS CLEAR=YES                             @G38LP2F 07500000
      MNOTE  0,'INVALID CLEAR OPTION, CLEAR=YES ASSUMED'       @G38LP2F 07550000
         AGO      .C2                                                   07600000
.C4      MNOTE      8,'** PARMAD MUST BE SPECIFIED WITH CLEAR OPTION'   07650000
         MEXIT                                                          07700000
.C2      AIF       ('&CLEAR' NE '' AND '&PARMAD' EQ '').C4              07750000
         AIF       ('&WRKREGS' EQ '').MSG1            CHECK TO SEE IF   07800000
.*                                                    WORK REGISTERS    07850000
.*                                                    ARE SPECIFIED     07900000
         AIF   ('&INLINE' EQ 'NO' OR '&INLINE' EQ 'N').OUTLINE          07950000
.*                                          BRANCH IF INLINE=YES WAS    08000000
.*                                          NOT SPECIFIED      @G381P2F 08050000
         AIF   ('&INLINE' NE 'YES' AND '&INLINE' NE 'Y').MSG9           08100000
.*                                          ISSUE MESSAGE IF &INLINE    08150000
.*                                          IS SPECIFIED INCORRECTLY    08200000
.*                                                             @G381P2F 08250000
         AIF   ('&MODE' NE '' AND '&MODE(1)' NE 'HOME').MSG7   @G381P2F 08300000
         AIF   ('&MODE' NE '' AND &J GT 1).MSG7                @G381P2F 08350000
.*                                          ISSUE MESSAGE IF &MODE      08400000
.*                                          IS SPECIFIED INCORRECTLY    08450000
.*                                          WITH INLINE=YES    @G381P2F 08500000
         AIF   ('&CANCEL' NE '').MSG16      CANCEL KEYWORD NOT     @D1A 08516600
.*                                          SUPPORTED FOR INLINE FORM   08533200
         AIF   ('&EUT' NE '').MSG6                             @G381P2F 08550000
.*                                          ISSUE MESSAGE IF &EUT       08600000
.*                                          IS SPECIFIED WITH           08650000
.*                                          INLINE=YES         @G381P2F 08700000
         AIF       ('&WRKREGS'(1,1) NE '(' OR N'&WRKREGS NE 2).MSG2     08750000
.*                                                    IF &WRKREGS IS    08800000
.*                                                    SPECIFIED BUT     08850000
.*                                                    INVALIDLY ISSUE   08900000
.*                                                    ERROR MESSAGE.    08950000
.*    SET UP LOCAL CHARACTER FOR USE IN EXPANSIONS                      09000000
&R1    SETC    '&WRKREGS(1)'                                            09050000
&R2    SETC    '&WRKREGS(2)'                                            09100000
&R3    SETC    '&PARMAD(1)'                                             09150000
&R4    SETC    '&FRRAD(1)'                                              09200000
.*                                                    OTHERWISE CHECK   09250000
.*                                                    &OPT FOR A VALID  09300000
.*                                                    OPTION            09350000
         AIF       ('&OPT' EQ 'A' OR '&OPT' EQ 'R').ADREP               09400000
         AIF       ('&OPT' EQ 'D' OR '&OPT' EQ 'P').EXPAND              09450000
         AIF       ('&OPT' EQ 'F').FLUSH                                09500000
         AIF       ('&OPT' EQ 'AF').ADFL  ADD/FLUSH OPTION              09550000
.INVOPT  MNOTE     12,'INVALID OPTION &OPT SPECIFIED'          @G38LP1S 09600000
.*                                                    MESSAGE STATING   09650000
.*                                                    INVALID OPTION    09700000
         AGO       .END                               STOP EXPANSION    09750000
.ADREP   AIF       ('&FRRAD' EQ '').MSG3              ISSUE MESSAGE IF  09800000
.*                                                    &FRRAD  IS NOT    09850000
.*                                                    SPECIFIED FOR     09900000
.*                                                    THE ADD/REPLACE   09950000
.*                                                    OPTION            10000000
         AGO       .EXPAND1                                             10050000
.EXPAND  ANOP                                         BEGIN EXPANSION   10100000
         AIF       ('&FRRAD' NE '' OR '&PARMAD' NE '').WARN             10150000
         AGO       .EXPAND1                                             10200000
.WARN    MNOTE     *,'FRRAD AND/OR PARMAD SPECIFIED FOR DELETE/PURGE'   10250000
         MNOTE     0,'FRRAD AND/OR PARMAD IGNORED-DELETE/PURGE HONORED' 10300000
.*                                                             @G38LP2F 10350000
.EXPAND1 ANOP                                                           10400000
&NAME    L     &R1,PSACSTK-PSA(0,0)         ADDRESS OF CURRENT STACK    10450000
         AIF       ('&OPT' EQ 'P').PURGE              GO EXPAND FOR A   10500000
.*                                                    PURGE OF THE FRR  10550000
.*                                                    STACK             10600000
         AIF       ('&OPT' EQ 'A').ADD   GO TO ADD ROUTINE              10650000
         L     &R2,FRRSCURR-FRRS(&R1,0)    CURRENT ELEMENT ADDRESS @L2C 10700000
         CL    &R2,FRRSEMP-FRRS(&R1,0)      IS THE FRR STACK EMPTY @L2C 10750000
         AIF       ('&OPT' EQ 'R').BRANCH             IF OPTION IS      10800000
.*                                                    REPLACE EXPAND    10850000
.*                                                    AT .BRANCH        10900000
         BE    *+12                         YES, DO NOT DELETE ENTRY    10950000
         SL    &R2,FRRSELEN-FRRS(&R1,0)     DECREMENT CURRENT          *11000000
                                            ADDRESS                @L2C 11050000
         AGO       .UPDATE                                              11100000
.ADD     L     &R2,FRRSELEN-FRRS(&R1,0)     LENGTH OF FRR STACK        *11150000
                                            ENTRY                  @L2C 11200000
.*                                          (USE FRRSELEN INSTEAD OF    11250000
.*                                           OF 32)            @G381P2F 11300000
         AL    &R2,FRRSCURR-FRRS(&R1,0)     COMPUTE NEXT ENTRY         *11350000
                                            ADDRESS                @L2C 11400000
         CL    &R2,FRRSLAST-FRRS(&R1,0)     WILL STACK OVERFLOW    @L2C 11450000
         BH    PSALSFCC-PSA(0,0)            YES, ISSUE 07D ABEND        11500000
         AGO       .COMMON1                                             11550000
.BRANCH  BNE   *+8                          NO, SKIP UPDATE    @G381P2F 11600000
.COMMON  AL    &R2,FRRSELEN-FRRS(&R1,0)    COMPUTE NEXT ENTRY ADDR @L2C 11650000
.COMMON1 ANOP                                                  @G381P2F 11700000
         AIF        ('&FRRAD'(1,1) EQ '(').STFRR                        11750000
         AIF        (T'&FRRAD EQ 'N').MSG4                              11800000
         ICM   &R1,15,&FRRAD             PUT FRR ADDRESS       @G860P1C 11850000
*                                        IN REGISTER           @G860P1C 11900000
         BSM   &R1,0                     SAVE ADDRESS MODE     @G860P1C 11950000
*                                        OF FRR ROUTINE        @G860P1C 12000000
         ST    &R1,FRRSFRRA-FRRSENTR(&R2,0) ADD ADDR TO STACK      @L2C 12050000
         L     &R1,PSACSTK-PSA(0,0)      ADDR OF CURRENT STACK @G860P1C 12100000
         AGO         .PMCHK                                             12150000
.STFRR   ANOP                                                  @G860P1C 12200000
         BSM   &R4,0                     SAVE ADDRESS MODE     @G860P1C 12250000
*                                        OF FRR ROUTINE        @G860P1C 12300000
         ST    &R4,FRRSFRRA-FRRSENTR(&R2,0) ADD ADDR TO STACK      @L2C 12350000
.PMCHK   AIF    ('&PARMAD' EQ '' ).UPDATE                      @G381P2F 12400000
.*                             DETERMINE IF PARMS ARE SPECIFIED         12450000
         AIF        ('&PARMAD'(1,1) EQ '(').LPARM                       12500000
         AIF        (T'&PARMAD EQ 'N').MSG4                             12550000
         AIF     ('&OPT' EQ 'R' AND '&CLEAR' EQ 'Y').C5                 12600000
         AIF     ('&OPT' EQ 'R' AND '&CLEAR' EQ 'YES').C5               12650000
         AIF       ('&OPT' NE 'A').NOZERO1            IS THIS THE       12700000
.*                                                    ADD OPTION        12750000
.*                                                   YES DO FOLLOWING   12800000
         AIF   ('&CLEAR' EQ 'N' OR '&CLEAR' EQ 'NO').NOZERO1            12850000
.C5      AIF   ('&SYSASCE' EQ 'P').NOLAE1                          @L2A 12900000
         LAE   &R2,0(&R2,0)                 SET ALET TO 0          @L2A 12950000
.NOLAE1  XC    FRRSPARM-FRRSENTR(24,&R2),FRRSPARM-FRRSENTR(&R2)         13000000
*                                           ZERO FRR PARM AREA          13050000
.NOZERO1 ST    &R2,FRRSCURR-FRRS(&R1,0)     UPDATE CURRENT             *13100000
                                            ENTRY ADDRESS          @L2C 13150000
         LA    &R2,FRRSPARM-FRRSENTR(&R2,0) RETURN PARM AREA       @L2C 13200000
         ST    &R2,&PARMAD                  ADDRESS TO USER             13250000
         AGO        .END                                                13300000
.LPARM   ANOP                                                           13350000
         AIF      ('&OPT' EQ 'R' AND '&CLEAR' EQ 'Y').C6                13400000
         AIF      ('&OPT' EQ 'R' AND '&CLEAR' EQ 'YES').C6              13450000
         AIF       ('&OPT' NE 'A').NOZERO2            IS THIS THE       13500000
.*                                                    ADD OPTION        13550000
.*                                                   YES DO FOLLOWING   13600000
         AIF   ('&CLEAR' EQ 'N' OR '&CLEAR' EQ 'NO').NOZERO2            13650000
.C6      XC    FRRSPARM-FRRSENTR(24,&R2),FRRSPARM-FRRSENTR(&R2)         13700000
*                                           ZERO FRR PARM AREA          13750000
.NOZERO2 ST    &R2,FRRSCURR-FRRS(&R1,0)     UPDATE CURRENT             *13800000
                                            ENTRY ADDRESS          @L2C 13850000
         &LAA  &R3,FRRSPARM-FRRSENTR(&R2,0) ADDR OF PARM AREA      @L2C 13900000
         AGO       .END                                                 13950000
.PURGE   L     &R2,FRRSEMP-FRRS(&R1,0)      LOAD EMPTY STACK ADDR  @L2C 14000000
.UPDATE  ST    &R2,FRRSCURR-FRRS(&R1,0)     UPDATE CURRENT STACK       *14050000
                                            ENTRY                  @L2C 14100000
         AIF       ('&OPT' NE 'P').END      FINISHED IF NOT             14150000
*                                           PURGE              @G382P2F 14200000
         CL    &R1,PSANSTK-PSA(0,0)         IS THIS THE NORMAL          14250000
*                                           STACK              @G382P2F 14300000
         BNE   *+8                          NO, BRANCH         @G382P2F 14350000
         NI    PSAMFLGS-PSA(0),X'7F'        ENSURE PSANSS FLAG          14400000
*                                           IS OFF             @G382P2F 14450000
         AGO       .END                                                 14500000
.FLUSH   ANOP                                                           14550000
&NAME    L     &R1,PSASTAK-PSA(0,0)               NORMAL STACK PTR      14600000
         ST    &R1,PSASTAK-PSA+FRRSCURR-FRRS(0,0) PURGE STACK           14650000
         MVI   PSASTAK-PSA+FRRSRTMW-FRRS(0),X'00' ZERO RECURSION BYTE   14700000
         NI    PSAMFLGS-PSA(0),X'7F'             ENSURE PSANSS          14750000
*                                                FLAG IS OFF   @G381P2F 14800000
         AGO   .END                                                     14850000
.ADFL    ANOP                                                           14900000
         AIF   ('&FRRAD' EQ '').MSG3  INSURE FRR AD IS SPECIFIED        14950000
         AIF   ('&FRRAD'(1,1) EQ '(').B10                               15000000
         AIF   (T'&FRRAD EQ 'N').MSG4                                   15050000
&R4      SETC  '&WRKREGS(2)'   SET WORK REG                             15100000
&NAME    L     &R4,&FRRAD                        LOAD FRR ADDRESS       15150000
         MVI   PSASTAK-PSA+FRRSRTMW-FRRS(0),0    ZERO RECURSION BYTE    15200000
         AGO  .B11                                                      15250000
.B10     ANOP                                                           15300000
&NAME    MVI   PSASTAK-PSA+FRRSRTMW-FRRS(0),0    ZERO RECURSION BYTE    15350000
.B11     NI    PSAMFLGS-PSA(0),X'7F'             ENSURE PSANSS          15400000
*                                                FLAG IS OFF   @G381P2F 15450000
         L     &R1,PSASTAK-PSA+FRRSEMP-FRRS(,0)  EMPTY STACK ADDRESS    15500000
*                                                              @G381P2F 15550000
         ST    &R1,PSASTAK-PSA+FRRSCURR-FRRS(,0) RESET STACK            15600000
         AL    &R1,PSASTAK-PSA+FRRSELEN-FRRS(,0) FIRST ENTRY ADDRESS    15650000
*                                                              @ZMB0044 15700000
         AIF   ('&AMODE' EQ 'DEFINED').AMODEFD  FRR ADDRESS IS ALREADY X15750000
                                              POINTER DEFINED  @G860P1F 15800000
         BSM   &R4,0          SAVE ADDRESS MODE OF FRR ROUTINE @G860P1C 15850000
.AMODEFD ANOP  ,                                               @G860P1F 15900000
         ST    &R4,FRRSFRRA-FRRSENTR(&R1,0)   ADD ADDRESS TO STACK @L2C 15950000
         AIF   ('&PARMAD' EQ '').C14    IF NO PARMS REQUEST BRANCH      16000000
.*                                      TO RESET THE STACK     @G381P2F 16050000
         AIF    ('&CLEAR' NE 'Y' AND '&CLEAR' NE 'YES').C14    @G381P2F 16100000
         AIF   ('&SYSASCE' EQ 'P').NOLAE2                          @L2A 16150000
         LAE   &R1,0(&R1,0)             SET ALET                   @L2A 16200000
.NOLAE2  ANOP                                                      @L2A 16250000
         XC    FRRSPARM-FRRSENTR(24,&R1),FRRSPARM-FRRSENTR(&R1)         16300000
*                                                CLEAR PARM AREA        16350000
.C14     ST    &R1,PSASTAK-PSA+FRRSCURR-FRRS(,0) RESET STACK            16400000
*                                                              @G381P2F 16450000
         AIF   ('&PARMAD' EQ '').END   FINISHED IF NO PARMS REQUEST     16500000
.*                                                             @G381P2F 16550000
         AIF   ('&PARMAD'(1,1) EQ '(').C10                              16600000
         AIF   (T'&PARMAD EQ 'N').MSG4                                  16650000
         AGO   .C13                                                     16700000
.C10     &LAA  &R3,FRRSPARM-FRRSENTR(&R1,0)      FRR PARM ADDRESS  @L2C 16750000
         AGO   .END                                                     16800000
.C13     LA    &R2,FRRSPARM-FRRSENTR(&R1,0)      FRR PARM ADDRESS  @L2C 16850000
         ST    &R2,&PARMAD                       RETURN TO USER         16900000
         AGO   .END                                                     16950000
.*                                        ***************************   17000000
.OUTLINE ANOP                                                  @G381P2F 17050000
.*                                        FOLLOWING IS CODE TO          17100000
.*                                        BRANCH TO IEAVTSFR   @G381P2F 17150000
.*                                        AND PERFORM ADD FRR  @G38LP1S 17200000
.*                                        INSTRUCTION          @G38LP1S 17250000
.*                                                                      17300000
.*    SET UP LOCAL CHARACTER FOR USE IN EXPANSIONS                      17350000
&I       SETA  1                 INIT INDEX FOR MODE           @G381P2F 17400000
&MODFLG  SETA  0                 INIT MODE FLAGS               @G381P2F 17450000
&CTRLNK  SETA  0                 INIT BRANCH TABLE CTR         @G381P2F 17500000
         AIF   ('&SYSASCE' EQ 'P').KEEPCTR                         @L2A 17550000
&CTRLNK  SETA  72                RESET TO AR TABLE                 @L2A 17600000
.KEEPCTR ANOP                                                      @L2A 17650000
&B(1)    SETB  0                 INIT MODE=HOME IND            @G381P2F 17700000
&B(2)    SETB  0                 INIT MODE=FULLXM IND          @G381P2F 17750000
&B(3)    SETB  0                 INIT MODE=PRIMARY IND         @G381P2F 17800000
&B(4)    SETB  0                 INIT MODE=LOCAL IND           @G381P2F 17850000
&B(5)    SETB  0                 INIT MODE=GLOBAL IND          @G381P2F 17900000
&R1      SETC  '&WRKREGS(1)'                                   @G381P2F 17950000
&R3      SETC  '&PARMAD(1)'                                    @G381P2F 18000000
&R4      SETC  '&FRRAD(1)'                                     @G381P2F 18050000
.*                                                    OTHERWISE CHECK   18100000
.*                                                    &OPT FOR A VALID  18150000
.*                                                    OPTION            18200000
         AIF       ('&OPT' EQ 'A' OR '&OPT' EQ 'R').ADREP2     @G381P2F 18250000
         AIF       ('&OPT' EQ 'D' OR '&OPT' EQ 'P').EXPAND2    @G381P2F 18300000
         AIF       ('&OPT' EQ 'F').FLUSH2                      @G381P2F 18350000
         AIF       ('&OPT' EQ 'AF').ADFL2  ADD/FLUSH OPTION    @G381P2F 18400000
         MNOTE     12,'INVALID OPTION &OPT SPECIFIED'                   18450000
.*                                                    MESSAGE STATING   18500000
.*                                                    INVALID OPTION    18550000
         AGO       .END                               STOP EXPANSION    18600000