*********************************************************************** 00001600
*PROPRIETARY V3 STATEMENT                                             * 00003600
*LICENSED MATERIALS - PROPERTY OF IBM                                 * 00005600
*"RESTRICTED MATERIALS OF IBM"                                        * 00007600
*5695-DF1                                                             * 00009600
*(C) COPYRIGHT 1992  IBM CORP.                                        * 00011600
*END PROPRIETARY V3 STATEMENT                                         * 00014600
*********************************************************************** 00017600
         MACRO                                                          00020000
&NAME    SETL  &DCB,&TYPE,&LL                                           00040000
.* CHANGE ACTIVITY                                                      00046600
.* OY54004 - 4/27/92 - MODIFY CONTINUATION CHARACTER FOR DBCS           00053200
         LCLB  &B(7)                                                    00060000
         LCLA  &CTR                                                     00080000
         LCLC  &A                                                       00100000
         AIF   ('&DCB' EQ '').E1                                        00120000
         AIF   ('&TYPE' EQ '').E2                                       00140000
         AIF   ('&LL' EQ '' AND '&TYPE'(1,1) NE 'B').E3                 00160000
&NAME    IHBINNRA &DCB,&LL                                              00180000
&A       SETC  '&TYPE'                                                  00200000
&B(1)    SETB  ('&A' EQ 'K' OR '&A' EQ 'KD' OR '&A' EQ 'KX' OR '&A' EQ +00210000
               'KDX' OR '&A' EQ 'KCD' OR '&A' EQ 'KCX' OR '&A' EQ 'KCDX+00220000
               ' OR '&A' EQ 'KC')                                       00260000
&B(1)    SETB  (&B(1) OR '&A' EQ 'KH' OR '&A' EQ 'KDH' OR '&A' EQ 'KXH'+00265000
                OR '&A' EQ 'KDXH' OR '&A' EQ 'KCDH' OR '&A' EQ 'KCXH' O+00270000
               R '&A' EQ 'KCDXH' OR '&A' EQ 'KCH')                      00275000
&B(2)    SETB  ('&A' EQ 'KCD' OR '&A' EQ 'KCX' OR '&A' EQ 'KCDX')       00280000
&B(2)    SETB  (&B(2) OR '&A' EQ 'KC')                                  00300000
&B(2)    SETB  (&B(2) OR '&A' EQ 'KCDH' OR '&A' EQ 'KCXH' OR '&A' EQ 'K+00306000
               CDXH' OR '&A' EQ 'KCH')                                  00312000
&B(3)    SETB  ('&A' EQ 'I' OR '&A' EQ 'ID' OR '&A' EQ 'IX' OR '&A' EQ +00322000
               'IDX')                                                   00340000
&B(4)    SETB  ('&A' EQ 'B' OR '&A' EQ 'BD' OR '&A' EQ 'BX' OR '&A' EQ +00350000
               'BDX')                                                   00380000
&B(5)    SETB  ('&A' EQ 'KD' OR '&A' EQ 'KDX' OR '&A' EQ 'KCD' OR '&A' +00390000
               EQ 'KCDX' OR '&A' EQ 'ID' OR '&A' EQ 'IDX' OR '&A' EQ 'B+00400000
               D' OR '&A' EQ 'BDX')                                     00440000
&B(5)    SETB  (&B(5) OR '&A' EQ 'KDH' OR '&A' EQ 'KDXH' OR '&A' EQ 'KC+00446000
               DH' OR '&A' EQ  'KCDXH')                                 00452000
&B(6)    SETB  ('&A' EQ 'KX' OR '&A' EQ 'KDX' OR '&A' EQ 'KCX' OR '&A' +00462000
               EQ 'KCDX' OR '&A' EQ 'IX' OR '&A' EQ 'IDX' OR '&A' EQ 'B+00472000
               X' OR '&A' EQ 'BDX')                                     00500000
&B(6)    SETB  (&B(6) OR '&A' EQ 'KXH' OR '&A' EQ 'KDXH' OR '&A' EQ 'KC+00503000
               XH' OR '&A' EQ 'KCDXH')                                  00506000
&B(7)    SETB  ('&A' EQ 'KH' OR '&A' EQ 'KDH' OR '&A' EQ 'KCH' OR '&A' +00509000
               EQ 'KCDH' OR '&A' EQ 'KXH' OR '&A' EQ 'KDXH' OR '&A' EQ +00512000
               'KCXH' OR '&A' EQ 'KCDXH')                               00515000
&CTR     SETA  128*&B(1)+64*&B(2)+32*&B(3)+16*&B(4)+8*&B(5)+4*&B(6)     00520000
&CTR     SETA  &CTR+2*&B(7)                                             00530000
         AIF   (&CTR EQ 0).E4                                           00540000
         AIF   (&B(2) AND &B(7)).E4     C AND H INVALID COMB            00550000
         AIF   (&B(4)).EASY                                             00560000
         LA    14,&CTR                       PICK UP TYPE BYTE          00580000
         SLL   14,24                         SHIFT TO HI-ORDER BYTE     00600000
         OR    0,14                              PACK IN WITH LOW.LIM.  00620000
         AGO   .FINI                                                    00640000
.EASY    LA    0,&CTR                        PICK UP TYPE BYTE          00660000
         SLL   0,24                          SHIFT TO HI-ORDER BYTE     00680000
.FINI    L     15,76(0,1)                    LOAD SETL RTN ADDR         00700000
         BALR  14,15                             LINK TO SETL ROUTINE   00720000
         MEXIT                                                          00740000
.E1      IHBERMAC 6                                                     00760000
         MEXIT                                                          00780000
.E2      IHBERMAC 25                                                    00800000
         MEXIT                                                          00820000
.E3      IHBERMAC 10                                                    00840000
         MEXIT                                                          00860000
.E4      IHBERMAC 48,,&TYPE                                             00880000
         MEND                                                           00900000
