*/***PROPRIETARY_STATEMENT********************************************/ 00004200
*/*                                                                  */ 00006300
*/*                                                                  */ 00008400
*/* LICENSED MATERIALS - PROPERTY OF IBM                             */ 00010500
*/* THIS MACRO IS "RESTRICTED MATERIALS OF IBM"                      */ 00012600
*/* 5645-001 (C) COPYRIGHT IBM CORP. 1980, 1997                      */ 00014700
*/*                                                                  */ 00016800
*/* STATUS= HBB6603                                                  */ 00018900
*/*                                                                  */ 00021000
*/***END_OF_PROPRIETARY_STATEMENT*************************************/ 00023100
*%/*                                                                    00050000
         MACRO                                                          00100000
&NAME    SETLOCK &REQUEST,&TYPE=,&ADDR=,&MODE=,&DISABLE,&RELATED=,     X00150000
               &REGS=,&BRANCH=,&ASCB=,&LOCKHLD=,&SCOPE=,&LOCK=,        X00183300
               &WORKREG=                                           @L8C 00216600
.**************************************************************         00250000
.*01*  MACRO NAME = SETLOCK                                             00275000
.*                                                                      01126100
.*01*  External Classification:                                         01126300
.*02*  NONE: BASE                                                       01126500
.*02*  GUPI: For OBTAIN and RELEASE, TYPE=CPU,                          01126700
.*                                   TYPE=CMS,                          01126900
.*                                   TYPE=LOCAL,                        01127100
.*                                   TYPE=CML,ASCB                      01127300
.*                                      MODE                            01127500
.*                                      REGS                            01127700
.*                                      RELATED                         01127900
.*           For TEST, TYPE=CPU,                                        01128100
.*                     TYPE=CMS,                                        01128300
.*                     TYPE=LOCAL,                                      01128500
.*                     TYPE=ALOCAL                                      01128700
.*                     TYPE=CML,ASCB                                    01128900
.*                        LOCKHLD                                       01129100
.*                        BRANCH                                        01129300
.*                        RELATED                                       01129500
.*01*  End of External Classification:                                  01129700
.*                                                                      01131600
.*01*  FUNCTION = GENERATE THE LINKAGE TO SPIN AND SUSPEND              01132800
.*                LOCK MANAGER                                          01134000
.*                                                                      01135200
.*01*  COMPONENT = SC1C5 (SUPERVISOR CONTROL)                           01136400
.*                                                                      01137600
.*01*  MACLIB = AMACLIB                                                 01138800
.*                                                                      01140000
.*02*   NOTES =                                                         01140600
.*        AR-MODE INVOKERS:                                        @L3A 01141200
.*          SYSSTATE IS USED TO TEST FOR AN AR-MODE INVOKER.            01141800
.*          FOR INSTRUCTIONS SUCH AS LM WITH NO INDEX REGISTER, THE     01142400
.*            AR OF THE BASE REGISTER IS SET BEFOREHAND.                01143000
.*          PRIMARY MODE IS ENTERED BEFORE THE CALL, AND AR-MODE        01143600
.*            IS REENTERED AFTER THE CALL.                              01144200
.*          R14 HOLDS THE PSALITA RATHER THAN R13 TO CONFORM TO THE     01144800
.*            PL/AS SUPPORT.                                            01145400
.*          FOR REGS=SAVE, THE STM IS DONE OFF R13 SINCE AR13 MUST HAVE 01146000
.*            BEEN ESTABLISHED BY AN AR-MODE INVOKER.                   01146600
.*          FOR REGS=SAVE, UPON RETURN, SINCE AR13 IS NEEDED TO DO THE  01147200
.*            LM, BUT THE ADDRESS IS IN R15 WITH THE RETURN CODE IN     01147800
.*            R13, THE TWO REGS ARE SWAPPED BEFORE DOING THE LM.        01148400
.*            THIS SAVES A STORAGE REFERENCE.                           01149000
.*          FOR LM OF ONLY 2 REGS, RATHER THAN SETTING THE AR, 2 LOADS  01149600
.*            ARE DONE SPECIFYING INDEX RATHER THAN BASE REG.           01150200
.*        WHEN REGS=STDSAVE IS SPECIFIED, ONLY GENERAL REGISTERS 2-12   01150300
.*          ARE PRESERVED.  GENERAL REGISTERS 14,15,0, AND 1 ARE NOT    01150400
.*          RESTORED BECAUSE ACCESS REGISTERS 14,15,0, AND 1 MAY NOT    01150500
.*          BE COUNTED ON ACROSS THE MACRO CALL.                        01150600
.*                                                                      01150700
.*01*  DEPENDENCIES =                                                   01150800
.*        Modules using SETLOCK must include the IHAPSA mapping         01150900
.*        prior to invocation.                                          01151000
.*                                                                      01151100
.*01*  SYNTAX  =                                                        01151200
.*                                                                      01151300
.* LABEL: SETLOCK                                                       01151400
.*                                                                      01151500
.*        OBTAIN                                                        01151600
.*                                                                      01151700
.*          ,TYPE=ASM        ,ADDR=LOCKWORD ADDRESS                     01151800
.*                                 (11)                                 01151900
.*                                                                      01152000
.*                ASMGL      ,ADDR=LOCKWORD ADDRESS                     01152100
.*                                 (11)                                 01152200
.*                                                                      01152300
.*                BMFLSD     ,ADDR=LOCKWORD ADDRESS                     01152400
.*                                 (11)                                 01152500
.*                                                                      01152600
.*                CML        ,ASCB=ASCB ADDRESS                         01152700
.*                                 (11)                   {2}           01152800
.*                                                                      01152900
.*                CMS                                     {2}           01153000
.*                                                                      01153100
.*                CMSALL                                  {2,4}         01153200
.*                                                                      01153300
.*                CMSEQDQ                                 {2}           01153400
.*                                                                      01153500
.*                CMSSMF                                  {2}           01153600
.*                                                                      01153700
.*                CPU                                     {1}           01153800
.*                                                                      01153900
.*                DISP                                                  01154000
.*                                                                      01154100
.*                ETRSET                                                01154200
.*                                                                      01154300
.*                IOS        ,SCOPE=SHR                                 01154400
.*                                  EXCL                                01154500
.*                                                                      01154600
.*           ***  IOSCAT        NO LONGER SUPPORTED                     01154700
.*                                                                      01154800
.*           ***  IOSLCH        NO LONGER SUPPORTED                     01154900
.*                                                                      01155000
.*                IOSUCB     ,ADDR=LOCKWORD ADDRESS                     01155100
.*                                 (11)                                 01155200
.*                                                                      01155300
.*                IOSULUT    ,SCOPE=SHR                                 01155400
.*                                  EXCL                                01155500
.*                                                                      01155600
.*                IOSYNCH    ,ADDR=LOCKWORD ADDRESS                     01155700
.*                                 (11)                                 01155800
.*                                                                      01155900
.*                IXLDS      ,ADDR=LOCKWORD ADDRESS                     01156000
.*                                 (11)                                 01156100
.*                                                                      01156200
.*                IXLREQST   ,ADDR=LOCKWORD ADDRESS                     01156300
.*                                 (11)                                 01156400
.*                                                                      01156500
.*                IXLSCH     ,ADDR=LOCKWORD ADDRESS                     01156600
.*                                 (11)                                 01156700
.*                                                                      01156800
.*                IXLSHELL   ,ADDR=LOCKWORD ADDRESS                     01156900
.*                                 (11)                                 01157000
.*                                                                      01157100
.*                IXLSHR     ,SCOPE=SHR                                 01157200
.*                                  EXCL                                01157300
.*                                                                      01157400
.*                LOCAL                                   {2}           01157500
.*                                                                      01157600
.*                RSM        ,SCOPE=SHR                                 01157700
.*                                  EXCL                                01157800
.*                                                                      01157900
.*                RSMAD      ,ADDR=LOCKWORD ADDRESS                     01158000
.*                                 (11)                                 01158100
.*                                                                      01158200
.*                RSMCM      ,ADDR=LOCKWORD ADDRESS                     01158300
.*                                 (11)                                 01158400
.*                                                                      01158500
.*                RSMDS      ,ADDR=LOCKWORD ADDRESS                     01158600
.*                                 (11)                                 01158700
.*                                                                      01158800
.*                RSMGL      ,ADDR=LOCKWORD ADDRESS                     01158900
.*                                 (11)                                 01159000
.*                                                                      01159100
.*                RSMST      ,ADDR=LOCKWORD ADDRESS                     01159200
.*                                 (11)                                 01159300
.*                                                                      01159400
.*                RSMXM      ,ADDR=LOCKWORD ADDRESS                     01159500
.*                                 (11)                                 01159600
.*                                                                      01159700
.*                SALLOC                                                01159800
.*                                                                      01159900
.*                SRM                                                   01160000
.*                                                                      01160100
.*                TPACBDEB   ,ADDR=LOCKWORD ADDRESS                     01160200
.*                                 (11)                                 01160300
.*                                                                      01160400
.*           ***  TPDNCB        NO LONGER SUPPORTED                     01160500
.*                                                                      01160600
.*           ***  TPNCB         NO LONGER SUPPORTED                     01160700
.*                                                                      01160800
.*                TRACE      ,SCOPE=SHR                                 01160900
.*                                  EXCL                                01161000
.*                                                                      01161100
.*                VSMFIX                                                01161200
.*                                                                      01161300
.*                VSMPAG                                                01161400
.*                                                                      01161500
.*                XCFDS      ,ADDR=LOCKWORD ADDRESS                     01161600
.*                                 (11)                                 01161700
.*                                                                      01161800
.*                XCFQ       ,SCOPE=SHR                                 01161900
.*                                  EXCL                                01162000
.*                                                                      01162100
.*                XCFRES     ,ADDR=LOCKWORD ADDRESS                     01162200
.*                                 (11)                                 01162300
.*                                                                      01162400
.*                WLMRES     ,ADDR=LOCKWORD ADDRESS                     01162500
.*                                 (11)                                 01162600
.*                                                                      01162700
.*                WLMQ       ,SCOPE=SHR                                 01162800
.*                                  EXCL                                01162900
.*                                                                      01163000
.*                CONTEXT    ,ADDR=LOCKWORD ADDRESS                     01163100
.*                                 (11)                                 01163200
.*                                                                      01163300
.*                REGSRV     ,SCOPE=SHR                                 01163400
.*                                  EXCL                                01163500
.*                                                                      01163600
.*                                                                      01163700
.*          ,MODE=COND                                    {4}           01163800
.*                (COND,IN)                               {3}           01163900
.*                UNCOND   < ,DISABLED >                  {1,2}         01164000
.*                                                                      01164100
.*        < ,REGS=SAVE                                                  01164200
.*                USE                                                   01164300
.*                STDSAVE  >                                            01164400
.*                                                                      01164500
.*        < ,RELATED=VALUE  >                                           01164600
.*                                                                      01164700
.*   NOTES: SETLOCK OBTAIN ONLY                                         01164800
.*                                                                      01164900
.*     {1}  THE MODE PARAMETER IS IGNORED IF TYPE=CPU IS                01165000
.*          SPECIFIED.                                                  01165100
.*                                                                      01165200
.*     {2}  THE DISABLED PARAMETER MAY NOT BE SPECIFIED WITH            01165300
.*          TYPE=CMS, TYPE=CMSEQDQ, TYPE=CMSSMF,                        01165400
.*          TYPE=CMSALL, TYPE=LOCAL, TYPE=CML OR                        01165500
.*          MODE=COND.                                                  01165600
.*                                                                      01165700
.*     {3}  THE MODE=(COND,IN) PARAMETER IS ONLY VALID WITH             01165800
.*          TYPE=CML.                                                   01165900
.*                                                                      01166000
.*     {4}  A MODE=COND MAY NOT BE SPECIFIED WITH TYPE=CMSALL.          01166100
.*                                                                      01166200
.*--------------------------------------------------------------------- 01166300
.*                                                                      01166400
.*        RELEASE                                                       01166500
.*                                                                      01166600
.*          ,TYPE=ALL                                                   01166700
.*                                                                      01166800
.*                ASM        ,ADDR=LOCKWORD ADDRESS                     01166900
.*                                 (11)                                 01167000
.*                                                                      01167100
.*                ASMGL      ,ADDR=LOCKWORD ADDRESS                     01167200
.*                                 (11)                                 01167300
.*                                                                      01167400
.*                BMFLSD     ,ADDR=LOCKWORD ADDRESS                     01167500
.*                                 (11)                                 01167600
.*                                                                      01167700
.*                CML        ,ASCB=ASCB ADDRESS                         01167800
.*                                 (11)                                 01167900
.*                                                                      01168000
.*                CMS                                                   01168100
.*                                                                      01168200
.*                CMSALL                                                01168300
.*                                                                      01168400
.*                CMSEQDQ                                               01168500
.*                                                                      01168600
.*                CMSSMF                                                01168700
.*                                                                      01168800
.*                CPU                                                   01168900
.*                                                                      01169000
.*                DISP                                                  01169100
.*                                                                      01169200
.*                ETRSET                                                01169300
.*                                                                      01169400
.*                IOS        ,SCOPE=SHR                                 01169500
.*                                  EXCL                                01169600
.*                                                                      01169700
.*           ***  IOSCAT        NO LONGER SUPPORTED                     01169800
.*                                                                      01169900
.*           ***  IOSLCH        NO LONGER SUPPORTED                     01170000
.*                                                                      01170100
.*                IOSUCB     ,ADDR=LOCKWORD ADDRESS                     01170200
.*                                 (11)                                 01170300
.*                                                                      01170400
.*                IOSULUT    ,SCOPE=SHR                                 01170500
.*                                  EXCL                                01170600
.*                                                                      01170700
.*                IOSYNCH    ,ADDR=LOCKWORD ADDRESS                     01170800
.*                                 (11)                                 01170900
.*                                                                      01171000
.*                IXLDS      ,ADDR=LOCKWORD ADDRESS                     01171100
.*                                 (11)                                 01171200
.*                                                                      01171300
.*                IXLREQST   ,ADDR=LOCKWORD ADDRESS                     01171400
.*                                 (11)                                 01171500
.*                                                                      01171600
.*                IXLSCH     ,ADDR=LOCKWORD ADDRESS                     01171700
.*                                 (11)                                 01171800
.*                                                                      01171900
.*                IXLSHELL   ,ADDR=LOCKWORD ADDRESS                     01172000
.*                                 (11)                                 01172100
.*                                                                      01172200
.*                IXLSHR     ,SCOPE=SHR                                 01172300
.*                                  EXCL                                01172400
.*                                                                      01172500
.*                LOCAL                                                 01172600
.*                                                                      01172700
.*                (REG)                                                 01172800
.*                                                                      01172900
.*                RSM        ,SCOPE=SHR                                 01173000
.*                                  EXCL                                01173100
.*                                                                      01173200
.*                RSMAD      ,ADDR=LOCKWORD ADDRESS                     01173300
.*                                 (11)                                 01173400
.*                                                                      01173500
.*                RSMCM      ,ADDR=LOCKWORD ADDRESS                     01173600
.*                                 (11)                                 01173700
.*                                                                      01173800
.*                RSMDS      ,ADDR=LOCKWORD ADDRESS                     01173900
.*                                 (11)                                 01174000
.*                                                                      01174100
.*                RSMGL      ,ADDR=LOCKWORD ADDRESS                     01174200
.*                                 (11)                                 01174300
.*                                                                      01174400
.*                RSMST      ,ADDR=LOCKWORD ADDRESS                     01174500
.*                                 (11)                                 01174600
.*                                                                      01174700
.*                RSMXM      ,ADDR=LOCKWORD ADDRESS                     01174800
.*                                 (11)                                 01174900
.*                                                                      01175000
.*                SALLOC                                                01175100
.*                                                                      01175200
.*                SPIN                                                  01175300
.*                                                                      01175400
.*                SRM                                                   01175500
.*                                                                      01175600
.*                TPACBDEB   ,ADDR=LOCKWORD ADDRESS                     01175700
.*                                 (11)                                 01175800
.*                                                                      01175900
.*           ***  TPDNCB        NO LONGER SUPPORTED                     01176000
.*                                                                      01176100
.*           ***  TPNCB         NO LONGER SUPPORTED                     01176200
.*                                                                      01176300
.*                TRACE      ,SCOPE=SHR                                 01176400
.*                                  EXCL                                01176500
.*                                                                      01176600
.*                VSMFIX                                                01176700
.*                                                                      01176800
.*                VSMPAG                                                01176900
.*                                                                      01177000
.*                XCFDS      ,ADDR=LOCKWORD ADDRESS                     01177100
.*                                 (11)                                 01177200
.*                                                                      01177300
.*                XCFQ       ,SCOPE=SHR                                 01177400
.*                                  EXCL                                01177500
.*                                                                      01177600
.*                XCFRES     ,ADDR=LOCKWORD ADDRESS                     01177700
.*                                 (11)                                 01177800
.*                                                                      01177900
.*                WLMRES     ,ADDR=LOCKWORD ADDRESS                     01178000
.*                                 (11)                                 01178100
.*                                                                      01178200
.*                WLMQ       ,SCOPE=SHR                                 01178300
.*                                  EXCL                                01178400
.*                                                                      01178500
.*                CONTEXT    ,ADDR=LOCKWORD ADDRESS                     01178600
.*                                 (11)                                 01178700
.*                                                                      01178800
.*                REGSRV     ,SCOPE=SHR                                 01178900
.*                                  EXCL                                01179000
.*                                                                      01179100
.*                                                                      01179200
.*                                                                      01179300
.*        < ,DISABLED >                                                 01179400
.*                                                                      01179500
.*        < ,REGS=SAVE                                                  01179600
.*                USE                                                   01179700
.*                STDSAVE  >                                            01179800
.*                                                                      01179900
.*        < ,RELATED=VALUE  >                                           01180000
.*                                                                      01180100
.*--------------------------------------------------------------------- 01180200
.*                                                                      01180300
.*        TEST                                                          01180400
.*                                                                      01180500
.*          ,TYPE=ALL                                                   01180600
.*                                                                      01180700
.*                ALOCAL   < ,LOCKHLD=(SYMBOLIC REG) >                  01180800
.*                                                                      01180900
.*                ASM      < ,ADDR=(SYMBOLIC REG) >                     01181000
.*                                                                      01181100