         MACRO                                                          00050000
&NAME    SETLOCK7 &REQUEST,&TYPE=,&ADDR=,&MODE=,&DISABLE,&RELATED=,    X00100000
               &REGS=,&BRANCH=,&ASCB=,&LOCKHLD=                         00150000
.*                                                                      00200000
.*01*  COPYRIGHT =                                                      00250000
.*        5740-XC6 COPYRIGHT IBM CORP 1981,                             00300000
.*        LICENSED MATERIAL-PROGRAM; PROPERTY OF IBM;                   00350000
.*        REFER TO COPYRIGHT INSTRUCTIONS FORM NUMBER                   00400000
.*        G120-2083.                                                    00450000
.*                                                                      00500000
.*01*   STATUS = OS/VS2 HBB2102                                         00550000
.*                                                                      00600000
.*01*   CHANGE ACTIVITY =                                               00650000
.*               HBB2102 SUPPORT                                        00700000
.*                                                                      00750000
.*A-000000-999999                                              @G860PXD 00800000
.*                                                                      00850000
         GBLC  &MESSAGE                                                 00900000
         LCLA   &INDEX,&INDEX0                                          00950000
         LCLA  &OFSET,&MASK,&BYTE,&I                                    01000000
         LCLA  &LOCK,&LOCALX,&CMLX                                      01050000
         LCLB  &ADVALID,&COND(4)                                        01100000
         LCLB  &TYPEREG                                                 01150000
         LCLC  &MESSAG2,&REG1,&RADDR,&BRADR(4)                          01200000
         LCLC  &INSTR,&AREA,&LABEL,&REG2                                01250000
*        MACDATE = 06/30/81                                             01300000
         AIF   ('&REQUEST' EQ 'TEST').TEST                              01350000
&INDEX   SETA  0                                                        01400000
         AIF   (T'&RELATED NE 'O').RELATED                              01450000
.*       IHB001  RELATED OPERAND REQUIRED, NOT SPECIFIED                01500000
         IHBERMAC 1006,RELATED                                          01550000
         MEXIT                                                          01600000
.RELATED ANOP                                                           01650000
         AIF   (T'&BRANCH EQ 'O').NOBRNAM                               01700000
.*       IHB280 BRANCH INVALID WITH OBTAIN/RELEASE                      01750000
         IHBERMAC 1020,BRANCH,&REQUEST                                  01800000
         MEXIT                                                          01850000
.NOBRNAM ANOP                                                           01900000
         AIF   ('&REQUEST' EQ 'OBTAIN').OBTAIN                          01950000
         AIF   ('&REQUEST' EQ 'RELEASE').RELEASE                        02000000
         IHBERMAC 24                                                    02050000
         MEXIT                                                          02100000
.OBTAIN  AIF   (T'&TYPE EQ 'O').ERRTYPE                                 02150000
         AIF   ('&TYPE' EQ 'ALOCAL').EROALOC                            02200000
         AIF   ('&DISABLE' EQ '').OBTAIN2                               02250000
         AIF   ('&DISABLE' NE 'DISABLED').ERROD                         02300000
.OBTAIN2 ANOP                                                           02350000
         AIF   ('&MODE' EQ 'COND').COND      COND REQUIRES NO INCREMENT 02400000
         AIF   ('&MODE' EQ 'UNCOND').UNCOND                             02450000
         AIF   ('&MODE' NE '').MODERR                                   02500000
.*       IHB001  MODE OPERAND REQUIRED, NOT SPECIFIED                   02550000
         IHBERMAC 1006,MODE                                             02600000
         MEXIT                                                          02650000
.EROALOC ANOP                                                           02700000
.*       IHB280 ALOCAL INVALID WITH OBTAIN                              02750000
         IHBERMAC 1020,ALOCAL,OBTAIN                                    02800000
         MEXIT                                                          02850000
.MODERR  ANOP                                                           02900000
.*       IHB002  INVALID MODE OPERAND SPECIFIED - XXX                   02950000
               IHBERMAC 1001,MODE,&MODE                                 03000000
         MEXIT                                                          03050000
.ERROD   ANOP                                                           03100000
         AIF   ('&DISABLE' EQ 'DISABLED').ERROD1                        03150000
.*       IHB244  INVALID POSIT-NL XXX OPERAND                           03200000
.INVLDIS IHBERMAC 1008,&DISABLE,1                                       03250000
         MEXIT                                                          03300000
.ERROD1  ANOP                                                           03350000
&MESSAGE SETC  'COND OR SUSPEND LOCK OBTAIN'                            03400000
.*       IHB280  DISABLE INVALID WITH COND OR SUSPEND LOCK OBTAIN       03450000
         IHBERMAC 1020,&DISABLE,&MESSAGE                                03500000
         MEXIT                                                          03550000
.UNCOND  ANOP                                                           03600000
&INDEX   SETA  (&INDEX+12)              INCREMENT TO UNCOND OBTAIN      03650000
         AGO   .REGS                                                    03700000
.RELEASE AIF   (T'&MODE NE 'O').ERRMOD                                  03750000
         AIF   (T'&TYPE EQ 'O').ERRTYPE                                 03800000
         AIF   ('&TYPE' EQ 'ALOCAL').ERRALOC                            03850000
         AIF   ('&DISABLE' EQ 'DISABLED').TESTSUP  TEST FOR SUSPEND REQ 03900000
         AIF   ('&DISABLE' EQ '').RELSE                                 03950000
.*       IHB244  INVALID POSIT-NL XXX OPERAND                           04000000
         IHBERMAC 1008,&DISABLE,1                                       04050000
         MEXIT                                                          04100000
.ERRTYPE ANOP                                                           04150000
.*       IHB001 TYPE OPERAND REQUIRED, NOT SPECIFIED                    04200000
         IHBERMAC 1006,TYPE                                             04250000
         MEXIT                                                          04300000
.ERRMOD  ANOP                                                           04350000
.*       IHB280               MODE INVALID WITH RELEASE                 04400000
         IHBERMAC 1020,MODE,RELEASE                                     04450000
         MEXIT                                                          04500000
.ERRALOC ANOP                                                           04550000
.*       IHB280  ALOCAL INVALID WITH RELEASE                            04600000
         IHBERMAC 1020,ALOCAL,RELEASE                                   04650000
         MEXIT                                                          04700000
.RELSE   ANOP                                                           04750000
&INDEX   SETA  (&INDEX+24)              INCREMENT TO RELEASE W/O DISBLE 04800000
         AGO   .REGS                                                    04850000
.TESTSUP ANOP                                                           04900000
         AIF   ('&TYPE'(1,3) EQ 'CMS').ERRDIS                           04950000
         AIF   ('&TYPE' EQ 'LOCAL').ERRDIS                              05000000
         AIF   ('&TYPE' EQ 'CML').ERRDIS                                05050000
&INDEX   SETA  (&INDEX+36)              INCREMENT TO RELEASE DISABLE    05100000
         AGO   .REGS                                                    05150000
.ERRDIS  ANOP                                                           05200000
.*       IHB280  DISABLE INVALID WITH CMS/LOCAL/CML                     05250000
         IHBERMAC 1020,&DISABLE,&TYPE                                   05300000
         MEXIT                                                          05350000
.COND    ANOP                                                           05400000
         AIF   ('&DISABLE' NE '').ERROD                                 05450000
.REGS    ANOP                                                           05500000
         AIF   ('&REGS' EQ 'SAVE').TYPE SAVE IS VALID PARAMETER         05550000
         AIF   ('&REGS' EQ 'USE').TYPE  USE IS VALID PARAMETER          05600000
         AIF   ('&REGS' EQ '').TYPE     PARAMETER IS NOT REQUIRED       05650000
.*       IHB002 INVALID REGS OPERAND SPECIFIED - XXX                    05700000
         IHBERMAC 1001,REGS,&REGS                                       05750000
         MEXIT                                                          05800000
.TYPE    ANOP                                                           05850000
&INDEX0  SETA  &INDEX                                                   05900000
         AIF   ('&TYPE' EQ 'DISP').CODE1 HIGH LOCK INCR NOT REQ@G387PXR 05950000
&INDEX   SETA  (&INDEX+48)              INCREMENT FOR 1 SPIN LOCK ENTRY 06000000
         AIF   ('&TYPE' EQ 'IOSCAT').CODEA                              06050000
&INDEX   SETA  (&INDEX+48)                                              06100000
         AIF   ('&TYPE' EQ 'IOSUCB').CODEA                              06150000
&INDEX   SETA  (&INDEX+48)                                              06200000
         AIF   ('&TYPE' EQ 'IOSLCH').CODEA                              06250000
&INDEX   SETA  (&INDEX+48)                                              06300000
         AIF   ('&TYPE' EQ 'IOSYNCH').CODEA                             06350000
&INDEX   SETA  (&INDEX+48)                                              06400000
         AIF   ('&TYPE' EQ 'TPNCB').CODEA                               06450000
&INDEX   SETA  (&INDEX+48)                                              06500000
         AIF   ('&TYPE' EQ 'TPDNCB').CODEA                              06550000
&INDEX   SETA  (&INDEX+48)                                              06600000
         AIF   ('&TYPE' EQ 'TPACBDEB').CODEA                            06650000
&INDEX   SETA  (&INDEX+48)                                              06700000
         AIF   ('&TYPE' EQ 'ASM').CODEA                                 06750000
&INDEX   SETA  (&INDEX+48)                                              06800000
         AIF   ('&TYPE' EQ 'SALLOC').CODE1                              06850000
&INDEX   SETA  (&INDEX+48)                                              06900000
         AIF   ('&TYPE' EQ 'SRM').CODE1                                 06950000
&INDEX   SETA  (&INDEX+48)                                              07000000
         AIF   ('&TYPE' EQ 'CMS').CODE1                                 07050000
&INDEX   SETA  (&INDEX+36)                                              07100000
         AIF   ('&TYPE' EQ 'LOCAL').CODE1                               07150000
&INDEX   SETA  &INDEX+36-&INDEX0                                        07200000
         AIF   ('&TYPE' EQ 'CML').ADDICMS                               07250000
         AIF   ('&TYPE'(1,3) EQ 'CMS').ADDICMS                          07300000
         AIF   ('&REQUEST' NE 'RELEASE').BADTYPE                        07350000
         AIF   (T'&ADDR NE 'O').ERRADD                                  07400000
         AIF   ('&TYPE' EQ 'SPIN').RSPIN                                07450000
         AIF   ('&TYPE' EQ 'ALL').RALL                                  07500000
         AIF   ('&TYPE'(1,1) NE '(').BADTYPE                            07550000
         AIF   ('&TYPE'(K'&TYPE,1) EQ ')').RREG                         07600000
.ADDICMS ANOP                                                           07650000
&INDEX   SETA  (&INDEX+12+&INDEX0)                                      07700000
         AIF   ('&TYPE' EQ 'CMSEQDQ').CODE1                             07750000
&INDEX   SETA  (&INDEX+24)                                              07800000
         AIF   ('&TYPE' EQ 'CMSALL').CKALL                              07850000
&INDEX   SETA  (&INDEX+48)                                              07900000
         AIF   ('&TYPE' EQ 'CMSSMF').CODE1                              07950000
&INDEX   SETA  (&INDEX+36)                                              08000000
         AIF   ('&TYPE' EQ 'CML').CODE                                  08050000
         AGO   .BADTYPE                                                 08100000
.CKALL   ANOP                                                           08150000
         AIF   ('&MODE' NE 'COND').CODE1                                08200000
         MNOTE 8,'*** &TYPE CONDITIONAL OBTAIN NOT SUPPORTED'           08250000
         MEXIT                                                          08300000
.BADTYPE AIF   ('&TYPE' NE '').INVTYP                                   08350000
.*       IHB001 TYPE OPERAND REQUIRED NOT SPECIFIED                     08400000
         IHBERMAC 1006,TYPE                                             08450000
         MEXIT                                                          08500000
.INVTYP  ANOP                                                           08550000
.*       IHB002  INVALID TYPE OPERAND SPECIFIED                         08600000
         IHBERMAC 1001,TYPE,&TYPE                                       08650000
         MEXIT                                                          08700000
.CODE1   AIF   (T'&ASCB NE 'O').LOCASCB                                 08750000
         AIF   (T'&LOCKHLD EQ 'O').CODE                                 08800000
.*       IHB280 LOCKHLD INVALID WITH TYPE=XXX                           08850000
&MESSAGE SETC  'TYPE='.'&TYPE'                                          08900000
         IHBERMAC 1020,LOCKHLD,&MESSAGE                                 08950000
         MEXIT                                                          09000000
.LOCASCB ANOP                                                           09050000
.*       IHB280 ASCB INVALID WITH TYPE=XXX                              09100000
&MESSAGE SETC 'TYPE='.'&TYPE'                                           09150000
         IHBERMAC 1020,ASCB,&MESSAGE                                    09200000
         MEXIT                                                          09250000
.CODE    AIF   ('&ADDR' NE '').ERRADD                                   09300000
         AIF   ('&REGS' EQ 'SAVE').SAVE1                                09350000
         AIF   ('&REGS' EQ 'USE').USE1                                  09400000
&NAME    L     13,PSALITA-FLC(0,0)      ADDRESS OF LOCK INTERFACE TABLE 09450000
         AIF   ('&TYPE' EQ 'LOCAL').LOAD                                09500000
         AIF   ('&TYPE' EQ 'CML').LOAD                                  09550000
         LM    11,13,&INDEX.(13)        LOAD ADDRESS OF THE LOCKWORD,   09600000
*                                       CLHT AND LOCK RTNS ENTRY POINT  09650000
         AGO   .MNLCODE                                                 09700000
.SAVE1   ANOP                                                           09750000
&NAME    LR    15,13                    LOAD SAVE AREA ADDRESS          09800000
         STM   11,14,0(15)              SAVE REGISTERS                  09850000
         L     13,PSALITA-FLC(0,0)      ADDRESS OF LOCK INTERFACE TABLE 09900000
         AIF   ('&TYPE' EQ 'LOCAL').LOAD                                09950000
         AIF   ('&TYPE' EQ 'CML').LOAD                                  10000000
         LM    11,13,&INDEX.(13)        LOAD ADDRESS OF THE LOCKWORD,   10050000
*                                       CLHT AND LOCK RTNS ENTRY POINT  10100000
         AGO   .MNLCODE                                                 10150000
.USE1    ANOP                                                           10200000
&NAME    LR    15,11                    SAVE REGISTER 11                10250000
         LR    0,12                     SAVE REGISTER 12                10300000
         LR    1,13                     SAVE REGISTER 13                10350000
         L     13,PSALITA-FLC(0,0)      ADDRESS OF LOCK INTERFACE TABLE 10400000
         AIF   ('&TYPE' EQ 'LOCAL').LOAD                                10450000
         AIF   ('&TYPE' EQ 'CML').LOAD                                  10500000
         LM    11,13,&INDEX.(13)        LOAD ADDRESS OF THE LOCKWORD,   10550000
*                                       CLHT AND LOCK RTNS ENTRY POINT  10600000
         AGO   .MNLCODE                                                 10650000
.LOAD    ANOP                                                           10700000
&INDEX   SETA  (&INDEX+8)                                               10750000
         AIF   ('&TYPE' EQ 'CML').CODEB                                 10800000
         L     13,&INDEX.(0,13)        LOAD ADDRESS OF LOCK RTN         10850000
         AGO   .MNLCODE                                                 10900000
.ERRADD  ANOP                                                           10950000
.*       IHB280 ADDR INVALID WITH TYPE=XXX                              11000000
&MESSAGE SETC  'TYPE='.'&TYPE'                                          11050000
         IHBERMAC 1020,ADDR,&MESSAGE                                    11100000
         MEXIT                                                          11150000
.CODEA   ANOP                                                           11200000
&INDEX   SETA  (&INDEX+4)     INCREMENT PAST LK ADDR                    11250000
         AIF   (T'&ASCB NE 'O').INVASCB                                 11300000
         AIF   (T'&LOCKHLD EQ 'O').CODEA1                               11350000
.*       IHB280 LOCKHLD INVALID WITH TYPE=XXX                           11400000
&MESSAGE SETC 'TYPE='.'&TYPE'                                           11450000
         IHBERMAC 1020,LOCKHLD,&MESSAGE                                 11500000
         MEXIT                                                          11550000
.INVASCB ANOP                                                           11600000
.*       IHB280 ASCB INVALID WITH TYPE=XXX                              11650000
&MESSAGE SETC 'TYPE='.'&TYPE'                                           11700000
         IHBERMAC 1020,ASCB,&MESSAGE                                    11750000
         MEXIT                                                          11800000
.CODEA1  AIF   ('&ADDR' EQ '(11)').MR11 LK ADDR ALREADY LOADED          11850000
         AIF   ('&ADDR' NE '').ADRLA                                    11900000
.*       IHB001 ADDR OPERAND REQUIRED NOT SPECIFIED                     11950000
         IHBERMAC 1006,ADDR                                             12000000
         MEXIT                                                          12050000
.CODEB   ANOP                                                           12100000
         AIF   (T'&ASCB EQ 'O').ERRASCB                                 12150000
         AIF   ('&ASCB' EQ '(11)').CMLR11                               12200000
         AIF   ('&ASCB'(1,1) EQ '(').ERREG2                             12250000
         AIF   ('&ASCB' NE '').CMLLA                                    12300000
.ERRASCB ANOP                                                           12350000
.*       IHB001  ASCB OPERAND REQUIRED NOT SPECIFIED                    12400000
         IHBERMAC 1006,ASCB                                             12450000
         MEXIT                                                          12500000
.CMLR11  ANOP                                                           12550000
         L     13,&INDEX.(0,13)         LOAD ADDR OF LOCK RTN           12600000
         AGO   .MNLCODE                                                 12650000
.CMLLA   L     11,&ASCB                 LOAD ASCB ADDR FOR CML          12700000
         L     13,&INDEX.(0,13)         LOAD ADDR OF LOCK RTN           12750000
         AGO   .MNLCODE                                                 12800000
.ERREG2  ANOP                                                           12850000
&MESSAGE SETC  'REGISTER NOTATION'                                      12900000
.*       IHB280 REGISTER NOTATION INVALID WITH ASCB                     12950000
         IHBERMAC 1020,&MESSAGE,ASCB                                    13000000
         MEXIT                                                          13050000
.ERREG1  ANOP                                                           13100000
&MESSAGE SETC  'REGISTER NOTATION'                                      13150000
.*       IHB280 REGISTER NOTATION INVALID WITH ADDR                     13200000
         IHBERMAC 1020,&MESSAGE,ADDR                                    13250000
         MEXIT                                                          13300000
.ADRLA   ANOP                                                           13350000
         AIF   ('&ADDR'(1,1) EQ '(').ERREG1                             13400000
         AIF   ('&REGS' EQ 'SAVE').SAVE2                                13450000
         AIF   ('&REGS' EQ 'USE').USE2                                  13500000
&NAME    LA    11,&ADDR                 LOCKWORD ADDRESS                13550000
         L     13,PSALITA-FLC(0,0)      ADDRESS OF LOCK INTERFACE TABLE 13600000
         LM    12,13,&INDEX.(13)        LOAD CLHT & ENTRY POINT ADDRESS 13650000
         AGO   .MNLCODE                                                 13700000
.SAVE2   ANOP                                                           13750000
&NAME    LR    15,13                    LOAD SAVE AREA ADDRESS          13800000
         STM   11,14,0(15)              SAVE REGISTERS                  13850000
         LA    11,&ADDR                 LOCKWORD ADDRESS                13900000
         L     13,PSALITA-FLC(0,0)      ADDRESS OF LOCK INTERFACE TABLE 13950000
         LM    12,13,&INDEX.(13)        LOAD LOCKWORD AND CLHT ADDRESS  14000000
         AGO   .MNLCODE                                                 14050000
.USE2    ANOP                                                           14100000
&NAME    LR    15,11                    SAVE REGISTER 11                14150000
         LR    0,12                     SAVE REGISTER 12                14200000
         LR    1,13                     SAVE REGISTER 13                14250000
         LA    11,&ADDR                 LOCKWORD ADDRESS                14300000
         L     13,PSALITA-FLC(0,0)      ADDRESS OF LOCK INTERFACE TABLE 14350000
         LM    12,13,&INDEX.(13)        LOAD LOCKWORD AND CLHT ADDRESS  14400000
         AGO   .MNLCODE                                                 14450000
.MR11    ANOP                                                           14500000
         AIF   ('&REGS' EQ 'SAVE').SAVE3                                14550000
         AIF   ('&REGS' EQ 'USE').USE3                                  14600000
&NAME    L     13,PSALITA-FLC(0,0)      ADDRESS OF LOCK INTERFACE TABLE 14650000
         LM    12,13,&INDEX.(13)        LOAD CLHT & ENTRY POINT ADDRESS 14700000
         AGO   .MNLCODE                                                 14750000
.SAVE3   ANOP                                                           14800000
&NAME    LR    15,13                    LOAD SAVE AREA ADDRESS          14850000
         STM   11,14,0(15)              SAVE REGISTERS                  14900000
         L     13,PSALITA-FLC(0,0)      ADDRESS OF LOCK INTERFACE TABLE 14950000
         LM    12,13,&INDEX.(13)        LOAD LOCKWORD AND CLHT ADDRESS  15000000
         AGO   .MNLCODE                                                 15050000
.USE3    ANOP                                                           15100000
&NAME    LR    15,11                    SAVE REGISTER 11                15150000
         LR    0,12                     SAVE REGISTER 12                15200000
         LR    1,13                     SAVE REGISTER 13                15250000
         L     13,PSALITA-FLC(0,0)      ADDRESS OF LOCK INTERFACE TABLE 15300000
         LM    12,13,&INDEX.(13)        LOAD LOCKWORD AND CLHT ADDRESS  15350000
.MNLCODE ANOP                                                           15400000
         AIF   ('&MODE' EQ 'UNCOND').BALCK                              15450000
.MNLCOD2 ANOP                                                           15500000
         BALR  14,13                    BRANCH ENTER LOCK ROUTINE       15550000
.MNLCOD3 ANOP                                                           15600000
         AIF   ('&REGS' EQ 'SAVE').SAVE4                                15650000
         AIF   ('&REGS' NE 'USE').ENDIT                                 15700000
         LR    11,15                    RESTORE REGISTER 11             15750000
         LR    15,13                    PUT RETURN CODE IN REGISTER 15  15800000
         LR    12,0                     RESTORE REGISTER 12             15850000
         LR    13,1                     RESTORE REGISTER 13             15900000
         AGO   .ENDIT                                                   15950000
.BALCK   ANOP                                                           16000000
         AIF   ('&DISABLE' EQ '').MNLCOD2                               16050000
         AIF   ('&TYPE' EQ 'LOCAL').ERROD1                              16100000
         AIF   ('&TYPE' EQ 'CML').ERROD1                                16150000
         AIF   ('&TYPE'(1,3) EQ 'CMS').ERROD1                           16200000
         BAL   14,4(0,13)              BRANCH TO LOCK RTN AT DIS ENTRY  16250000
*        NOTE: YOU HAVE JUST SAID THAT YOU ARE DISABLED                 16300000
         AGO   .MNLCOD3                                                 16350000
.SAVE4   ST    13,16(0,15)              STORE RETURN CODE               16400000
         LM    11,15,0(15)              RESTORE REGS - RC IN REG 15     16450000
         MEXIT                                                          16500000
.RALL    ANOP                                                           16550000
         AIF   (T'&ASCB NE 'O').RALLASI                                 16600000
         AIF   (T'&LOCKHLD EQ 'O').RALLOK                               16650000
.*       IHB280 LOCKHLD INVALID WITH TYPE=ALL                           16700000
&MESSAGE SETC 'TYPE='.'&TYPE'                                           16750000
         IHBERMAC 1020,LOCKHLD,&MESSAGE                                 16800000
         MEXIT                                                          16850000
.RALLASI ANOP                                                           16900000
.*       IHB280 ASCB INVALID WITH TYPE=ALL                              16950000
&MESSAGE SETC  'TYPE='.'&TYPE'                                          17000000
         IHBERMAC 1020,ASCB,&MESSAGE                                    17050000
         MEXIT                                                          17100000
.RALLOK  ANOP                                                           17150000
         AIF   ('&NAME' EQ '').RALLNN                                   17200000
&NAME    DC    0H'0'                                                    17250000
.RALLNN  AIF   (T'&REGS EQ 'O').RCMS                                    17300000
         AIF   ('&REGS' EQ 'SAVE').RALLS                                17350000
         LR    15,11              SAVE REG11                            17400000
         LR    0,12               SAVE REG12                            17450000
         LR    1,13               SAVE REG13                            17500000
         AGO   .RCMS                                                    17550000
.RALLS   ANOP                                                           17600000
         LR    15,13              SAVE AREA ADDRESS                     17650000
         STM   11,14,0(15)        SAVE REG11 THRU R14                   17700000
.RCMS    ANOP                                                           17750000
&LABEL   SETC  'IHA&SYSNDX'                                             17800000
&LOCALX  SETA  596                INDEX IN IEAVELIT FO LOCAL            17850000
&CMLX    SETA  752                INDEX IN IEAVELIT FOR CML             17900000
         TM    PSAHLHI-PSA+3(0),2 IS A CROSS MEMORY SERVICES            17950000
*                                 LOCK HELD?                            18000000
         BZ    &LABEL.A           NO: SKIP CROSS MEMORY                 18050000
*                                 SERVICES RELEASE                      18100000
         L     13,PSALITA-FLC(0,0) ADDR OF LOCK INTERFACE TAB           18150000
         LM    11,13,672(13)      LOAD ADDR OF FIRST CROSS              18200000
*                                 MEMORY SERVICES LOCK IN SLA,          18250000
*                                 MASK FOR HLHI UPDATE, AND             18300000
*                                 LOCK RTNS ENTRY POINT                 18350000
         BALR  14,13              LINK TO LOCK RTN                      18400000
&LABEL.A DC    0H'0'              BRANCH LABEL                          18450000
         TM    PSAHLHI-PSA+3(0),1 IS LOCAL LOCK HELD?                   18500000