*%/*                                                                    00050000
         MACRO                                                          00100000
&NAME    SETLOCK8 &REQUEST,&TYPE=,&ADDR=,&MODE=,&DISABLE,&RELATED=,    X00150000
               &REGS=,&BRANCH=,&ASCB=,&LOCKHLD=,&SCOPE=,&LOCK= @G860PXA 00200000
.**************************************************************         00250000
.*01*  MACRO NAME = SETLOCK8                                            00300000
.*                                                                      00350000
.*01*  PROPRIETARY STATEMENT =                                     @L1A 00400000
.*        LICENSED MATERIALS - PROPERTY OF IBM                          00600000
.*        THIS MACRO IS "RESTRICTED MATERIALS OF IBM"                   00612500
.*        5695-047 (C)COPYRIGHT IBM CORP 1990                           00625000
.*        SEE COPYRIGHT INSTRUCTIONS                                    00637500
.*                                                                      00650000
.*01*  STATUS = HBB4410                                            @L1A 00700000
.*                                                                      00750000
.*01*  FUNCTION = GENERATE THE LINKAGE TO SPIN AND SUSPEND              00800000
.*                LOCK MANAGER                                          00850000
.*                                                                      00900000
.*01*  COMPONENT = SC1C5 (SUPERVISOR CONTROL)                           00950000
.*                                                                      01000000
.*01*  MACLIB = AMACLIB                                                 01050000
.*                                                                      01100000
.*02*   NOTES =                                                         01150000
.*        AR-MODE INVOKERS:                                        @L3A 01200000
.*          SYSSTATE IS USED TO TEST FOR AN AR-MODE INVOKER.            01250000
.*          FOR INSTRUCTIONS SUCH AS LM WITH NO INDEX REGISTER, THE     01300000
.*            AR OF THE BASE REGISTER IS SET BEFOREHAND.                01350000
.*          PRIMARY MODE IS ENTERED BEFORE THE CALL, AND AR-MODE        01400000
.*            IS REENTERED AFTER THE CALL.                              01450000
.*          R14 HOLDS THE PSALITA RATHER THAN R13 TO CONFORM TO THE     01500000
.*            PL/AS SUPPORT.                                            01550000
.*          FOR REGS=SAVE, THE STM IS DONE OFF R13 SINCE AR13 MUST HAVE 01600000
.*            BEEN ESTABLISHED BY AN AR-MODE INVOKER.                   01650000
.*          FOR REGS=SAVE, UPON RETURN, SINCE AR13 IS NEEDED TO DO THE  01700000
.*            LM, BUT THE ADDRESS IS IN R15 WITH THE RETURN CODE IN     01750000
.*            R13, THE TWO REGS ARE SWAPPED BEFORE DOING THE LM.        01800000
.*            THIS SAVES A STORAGE REFERENCE.                           01850000
.*          FOR LM OF ONLY 2 REGS, RATHER THAN SETTING THE AR, 2 LOADS  01900000
.*            ARE DONE SPECIFYING INDEX RATHER THAN BASE REG.           01950000
.*                                                                      02000000
.*01*   CHANGE ACTIVITY =                                               02050000
.*    OZ35343 - CHANGE REFERENCES TO PSA LOCATIONS TO USE EXPLICIT      02100000
.*              ADDRESSABILITY SO THAT A USING PSA,0 IS NOT NEEDED TO   02150000
.*              INVOKE THE MACRO                                        02200000
.*                                                                      02250000
.*  $L1=AR       HBB3310  850801  PD16H4:  ACCESS REGISTER SUPPORT      02300000
.*  $L2=DATASPAC HBB3310  860220  PD22XB:  AR-MODE INVOKER SUPPORT      02350000
.*  $L3=DATASPAC HBB3310  860903  PD16Q4:  RSMDS LOCK                   02400000
.*  $D1=DCR0031  HBB3310  860903  PD16Q4:  IOS LOCK                     02450000
.*  $P1=PC40381  HBB3310  861101  PD16H4:  LOAD PARMS BEFORE PSALITA    02500000
.*  $P2=PC40337  HBB3310  861229  PD16Q4:  TEST FOR LOCK PARM WHEN      02550000
.*                                         TYPE=HIER IS NOT SPECIFIED   02600000
.*                                         ON TEST OPTION               02650000
.*  $L0=LOCKR    HBB4410  870831  PD16BN:  LOCK RESTRUCTURE             02675000
.*                                                                      02700000
.*                                                                      02750000
.**************************************************************@G50EPXS 02800000
.*                                                                      02850000
.*   CMSSMF LOCK SUPPORT                                       @G741PXT 02900000
.*   CML LOCK SUPPORT                                          @G387PXR 02950000
.*   DELETE IOSCAT,IOSLCH LOCKS                                @G860PXB 03000000
.*   CHANGES FOR SALLOC LOCK BREAKUP                           @G860PXA 03050000
.*   ADD CPU LOCK                                              @G860PXA 03100000
.*   CML TEST SUPPORT                                          @G382PXR 03150000
.*   ADD TEST SUPPORT FOR THE SALLOC LOCK BREAKUP              @G860PXA 03200000
.*   SUPPORT NEW INTERFACE FOR RELEASE ALL AND RELEASE REG     @G860PXA 03250000
.*   CPU TEST SUPPORT                                          @G860PXK 03300000
.*   ADD RSMCM LOCK                                            @G860PXJ 03350000
.*   ADD TEST SUPPORT FOR TYPE=HIER                            @G860PXA 03400000
.*   ADD "MODE=(COND,IN)" SUPPORT FOR CML LOCK OBTAIN              @L1A 03450000
.*   ADD RSMDS LOCK                                                @L3A 03500000
.*   ADD IOS LOCK                                                  @D1A 03550000
.**************************************************************@G860PXK 03600000
.*                                                                      03650000
         GBLC  &SYSASCE            GLOBAL FOR SYSSTATE MACRO       @L2A 03700000
         SYSSTATE TEST             OBTAIN DEFAULT SYSASCE          @L2A 03750000
         GBLC  &SYSSPLV            GLOBAL FOR SPLEVEL MACRO    @G860PXD 03800000
         SPLEVEL TEST              OBTAIN DEFAULT SYSSPLV      @G860PXD 03850000
         AIF   ('&SYSSPLV' EQ '1').LEVEL1  GO GEN DOWNWARD     @G860PXD 03900000
.*                                 COMPATIBLE MACRO            @G860PXD 03950000
         GBLC  &MESSAGE                                                 04000000
         LCLA  &INDEX,&INDEX0                                  @G860PXD 04050000
         LCLA  &OFSET,&MASK,&BYTE,&I                                    04100000
         LCLA  &LOCALX,&CMLX                                   @G860PXA 04150000
         LCLB  &ADVALID,&COND(4)                                        04200000
         LCLB  &TYPEREG                                                 04250000
         LCLC  &MESSAG2,&REG1,&RADDR,&BRADR(4)                 @G387PXR 04300000
         LCLC  &INSTR,&AREA,&LABEL,&REG2                       @G387PXR 04350000
&LABEL   SETC  'IHA&SYSNDX'                                    @G860PXA 04400000
*        MACDATE = 09/15/87                                             04450000
         AIF   ('&REQUEST' EQ 'TEST').TEST                              04500000
&INDEX   SETA  0                                                        04550000
         AIF   (T'&BRANCH EQ 'O').NOBRNAM                               04600000
.*       IHB280 BRANCH INVALID WITH OBTAIN/RELEASE                      04650000
         IHBERMAC 1020,BRANCH,&REQUEST                                  04700000
         MEXIT                                                          04750000
.NOBRNAM ANOP                                                           04800000
         AIF   ('&REQUEST' EQ 'OBTAIN').OBTAIN                          04850000
         AIF   ('&REQUEST' EQ 'RELEASE').RELEASE                        04900000
         IHBERMAC 24                                                    04950000
         MEXIT                                                          05000000
.OBTAIN  AIF   (T'&TYPE EQ 'O').ERRTYPE                        @G387PXR 05050000
         AIF   ('&TYPE' EQ 'ALOCAL').EROALOC                   @G387PXR 05100000
         AIF   ('&DISABLE' EQ '').OBTAIN2                               05150000
         AIF   ('&DISABLE' NE 'DISABLED').ERROD                         05200000
.* NOTE THAT ON AN OBTAIN, TYPE=CPU, DISABLED IS NOT SUPPORTED @G860PXA 05250000
         AIF   ('&TYPE' NE 'CPU').OBTAIN2                      @G860PXA 05300000
.*       IHB280  DISABLE INVALID WITH CPU                      @G860PXA 05350000
         IHBERMAC 1020,&DISABLE,&TYPE                          @G860PXA 05400000
         MEXIT                                                 @G860PXA 05450000
.OBTAIN2 ANOP                                                           05500000
         AIF   ('&TYPE' NE 'CPU').MODECK                       @G860PXA 05550000
         AIF   (T'&MODE EQ 'O').COND                           @G860PXA 05600000
         MNOTE 0,'*** MODE IGNORED WITH TYPE=CPU'              @G860PXA 05650000
         AGO   .COND                                           @G860PXA 05700000
.MODECK  ANOP                                                  @G860PXA 05750000
         AIF   ('&MODE' EQ 'COND').COND      COND REQUIRES NO INCREMENT 05800000
         AIF   ('&MODE' EQ 'UNCOND').UNCOND                             05850000
         AIF   ('&MODE' EQ '(COND,IN)').CONDIN                     @L1A 05900000
         AIF   ('&MODE' NE '').MODERR                                   05950000
.*       IHB001  MODE OPERAND REQUIRED, NOT SPECIFIED                   06000000
         IHBERMAC 1006,MODE                                             06050000
         MEXIT                                                          06100000
.EROALOC ANOP                                                  @G387PXR 06150000
.*       IHB280 ALOCAL INVALID WITH OBTAIN                     @G387PXR 06200000
         IHBERMAC 1020,ALOCAL,OBTAIN                           @G387PXR 06250000
         MEXIT                                                 @G387PXR 06300000
.MODERR  ANOP                                                           06350000
.*       IHB002  INVALID MODE OPERAND SPECIFIED - XXX                   06400000
               IHBERMAC 1001,MODE,&MODE                                 06450000
         MEXIT                                                          06500000
.ERROD   ANOP                                                           06550000
         AIF   ('&DISABLE' EQ 'DISABLED').ERROD1                        06600000
.*       IHB244  INVALID POSIT-NL XXX OPERAND                           06650000
.INVLDIS IHBERMAC 1008,&DISABLE,1                                       06700000
         MEXIT                                                          06750000
.ERROD1  ANOP                                                           06800000
&MESSAGE SETC  'COND OR SUSPEND LOCK OBTAIN'                            06850000
.*       IHB280  DISABLE INVALID WITH COND OR SUSPEND LOCK OBTAIN       06900000
         IHBERMAC 1020,&DISABLE,&MESSAGE                                06950000
         MEXIT                                                          07000000
.UNCOND  ANOP                                                           07050000
&INDEX   SETA  (&INDEX+12)              INCREMENT TO UNCOND OBTAIN      07100000
         AGO   .REGS                                                    07150000
.RELEASE AIF   (T'&MODE NE 'O').ERRMOD                         @G387PXR 07200000
         AIF   (T'&TYPE EQ 'O').ERRTYPE                        @G387PXR 07250000
         AIF   ('&TYPE' EQ 'ALOCAL').ERRALOC                   @G387PXR 07300000
         AIF   ('&DISABLE' EQ 'DISABLED').TESTSUP  TEST FOR SUSPEND REQ 07350000
         AIF   ('&DISABLE' EQ '').RELSE                                 07400000
.*       IHB244  INVALID POSIT-NL XXX OPERAND                           07450000
         IHBERMAC 1008,&DISABLE,1                                       07500000
         MEXIT                                                          07550000
.ERRTYPE ANOP                                                  @G387PXR 07600000
.*       IHB001 TYPE OPERAND REQUIRED, NOT SPECIFIED           @G387PXR 07650000
         IHBERMAC 1006,TYPE                                    @G387PXR 07700000
         MEXIT                                                 @G387PXR 07750000
.ERRMOD  ANOP                                                           07800000
.*       IHB280               MODE INVALID WITH RELEASE                 07850000
         IHBERMAC 1020,MODE,RELEASE                                     07900000
         MEXIT                                                          07950000
.ERRALOC ANOP                                                  @G387PXR 08000000
.*       IHB280  ALOCAL INVALID WITH RELEASE                   @G387PXR 08050000
         IHBERMAC 1020,ALOCAL,RELEASE                          @G387PXR 08100000
         MEXIT                                                 @G387PXR 08150000
.RELSE   ANOP                                                           08200000
&INDEX   SETA  (&INDEX+12)                                     @G860PXA 08250000
.* NOTE THAT THE LITA OFFSET FOR RELEASE WITH TYPE=CPU IS +12  @G860PXA 08300000
         AIF   ('&TYPE' EQ 'CPU').REGS                         @G860PXA 08350000
&INDEX   SETA  (&INDEX+12)     INCREMENT TO RELEASE W/O DISBLE @G860PXA 08400000
         AGO   .REGS                                                    08450000
.TESTSUP ANOP                      CHECK DISABLE INVALID CASES @G860PXA 08500000
         AIF   ('&TYPE'(1,3) EQ 'CMS').ERRDIS                  @G741PXT 08550000
         AIF   ('&TYPE' EQ 'LOCAL').ERRDIS                              08600000
         AIF   ('&TYPE' EQ 'CML').ERRDIS                       @G387PXR 08650000
         AIF   ('&TYPE' EQ 'CPU').ERRDIS                       @G860PXA 08700000
&INDEX   SETA  (&INDEX+36)              INCREMENT TO RELEASE DISABLE    08750000
         AGO   .REGS                                                    08800000
.ERRDIS  ANOP                                                           08850000
.*       IHB280  DISABLE INVALID WITH CMS/LOCAL/CML/CPU        @G860PXA 08900000
         IHBERMAC 1020,&DISABLE,&TYPE                                   08950000
         MEXIT                                                          09000000
.COND    ANOP                                                           09050000
         AIF   ('&DISABLE' NE '').ERROD                                 09100000
.REGS    ANOP                                                           09150000
         AIF   ('&REGS' EQ 'SAVE').TYPE SAVE IS VALID PARAMETER         09200000
         AIF   ('&REGS' EQ 'USE').TYPE  USE IS VALID PARAMETER          09250000
         AIF   ('&REGS' EQ '').TYPE     PARAMETER IS NOT REQUIRED       09300000
.BADREGS ANOP                                                      @L1A 09350000
.*       IHB002 INVALID REGS OPERAND SPECIFIED - XXX                    09400000
         IHBERMAC 1001,REGS,&REGS                                       09450000
         MEXIT                                                          09500000
.TYPE    ANOP                                                           09550000
&INDEX0  SETA  &INDEX                                                   09600000
         AIF   ('&TYPE' EQ 'DISP').CODE1 HIGH LOCK INCR NOT REQ@G387PXR 09650000
&INDEX   SETA  (&INDEX+48)              INCREMENT FOR 1 SPIN LOCK ENTRY 09700000
         AIF   ('&TYPE' EQ 'IOSCAT').INVTYP                    @G860PXB 09750000
         AIF   ('&TYPE' EQ 'RSMDS').CODEA                          @L3A 09800000
&INDEX   SETA  (&INDEX+48)                                              09850000
         AIF   ('&TYPE' EQ 'IOSUCB').CODEA                              09900000
&INDEX   SETA  (&INDEX+48)                                              09950000
         AIF   ('&TYPE' EQ 'IOSLCH').INVTYP                    @G860PXB 10000000
&INDEX   SETA  (&INDEX+48)                                              10050000
         AIF   ('&TYPE' EQ 'IOSYNCH').CODEA                             10100000
&INDEX   SETA  (&INDEX+48)                                              10150000
         AIF   ('&TYPE' EQ 'TPNCB').CODEA                               10200000
&INDEX   SETA  (&INDEX+48)                                              10250000
         AIF   ('&TYPE' EQ 'TPDNCB').CODEA                              10300000
&INDEX   SETA  (&INDEX+48)                                              10350000
         AIF   ('&TYPE' EQ 'TPACBDEB').CODEA                            10400000
&INDEX   SETA  (&INDEX+48)                                              10450000
         AIF   ('&TYPE' EQ 'ASM').CODEA                                 10500000
&INDEX   SETA  (&INDEX+48)                                              10550000
         AIF   ('&TYPE' EQ 'SALLOC').CODE1                     @G387PXR 10600000
&INDEX   SETA  (&INDEX+48)                                              10650000
         AIF   ('&TYPE' EQ 'SRM').CODE1                        @G387PXR 10700000
&INDEX   SETA  (&INDEX+48)                                              10750000
         AIF   ('&TYPE' EQ 'CMS').CODE1                        @G387PXR 10800000
&INDEX   SETA  (&INDEX+36)                                              10850000
         AIF   ('&TYPE' EQ 'LOCAL').CODE1                      @G387PXR 10900000
&INDEX   SETA  &INDEX+36-&INDEX0                                        10950000
         AIF   ('&TYPE' EQ 'CML').ADDICMS                      @G387PXR 11000000
         AIF   ('&TYPE'(1,3) EQ 'CMS').ADDICMS                 @G50EPXS 11050000
         AIF   ('&TYPE' EQ 'SPIN').CKSPIN                      @G860PXA 11100000
         AIF   ('&TYPE' EQ 'ALL').CKSPIN                       @G860PXA 11150000
         AIF   ('&TYPE'(1,1) NE '(').CKLOCKS                   @G860PXA 11200000
.CKSPIN  ANOP                                                  @G860PXA 11250000
         AIF   ('&REQUEST' NE 'RELEASE').BADTYPE                        11300000
         AIF   (T'&ADDR NE 'O').ERRADD                                  11350000
         AIF   ('&TYPE' EQ 'SPIN').RSPIN                                11400000
         AIF   ('&TYPE' EQ 'ALL').RALL                                  11450000
         AIF   ('&TYPE'(K'&TYPE,1) EQ ')').RREG                         11500000
         AGO .INVTYP       INDICATE TYPE OPERAND IS INVALID    @G387PXR 11550000
.ADDICMS ANOP                                                  @G50EPXS 11600000
&INDEX   SETA  (&INDEX+12+&INDEX0)                             @G50EPXS 11650000
         AIF   ('&TYPE' EQ 'CMSEQDQ').CODE1                    @G387PXR 11700000
&INDEX   SETA  (&INDEX+24)                                     @G50EPXS 11750000
         AIF   ('&TYPE' EQ 'CMSALL').CKALL                     @G741PXT 11800000
&INDEX   SETA  (&INDEX+48)                                     @G741PXT 11850000
         AIF   ('&TYPE' EQ 'CMSSMF').CODE1                     @G387PXR 11900000
&INDEX   SETA  (&INDEX+36)                                     @G387PXR 11950000
         AIF   ('&TYPE' EQ 'CML').CODE                         @G387PXR 12000000
         AGO   .BADTYPE                                        @G741PXT 12050000
.CKALL   ANOP                                                  @G741PXT 12100000
         AIF   ('&MODE' NE 'COND').CODE1                       @G387PXR 12150000
         MNOTE 8,'*** &TYPE CONDITIONAL OBTAIN NOT SUPPORTED'  @G50EPXS 12200000
         MEXIT                                                 @G50EPXS 12250000
.CKLOCKS ANOP                                                  @G860PXA 12300000
&INDEX   SETA  (&INDEX+156+&INDEX0) UPDATE PTR TO TRACE ENTRY  @G860PXA 12350000
         AIF   ('&TYPE' EQ 'TRACE').SCOPE                      @G860PXA 12400000
&INDEX   SETA  (&INDEX+96) UPDATE LITA PTR TO VSMPAG ENTRY     @G860PXA 12450000
         AIF   ('&TYPE' EQ 'VSMPAG').CODE1                     @G860PXA 12500000
&INDEX   SETA  (&INDEX+48) UPDATE LITA POINTER TO RSM ENTRY    @G860PXA 12550000
         AIF   ('&TYPE' EQ 'RSM').SCOPE                        @G860PXA 12600000
&INDEX   SETA  (&INDEX+96) UPDATE LITA POINTER TO RSMAD ENTRY  @G860PXA 12650000
         AIF   ('&TYPE' EQ 'RSMAD').CODEA                      @G860PXA 12700000
&INDEX   SETA  (&INDEX+48) UPDATE LITA POINTER TO RSMXM ENTRY  @G860PXA 12750000
         AIF   ('&TYPE' EQ 'RSMXM').CODEA                      @G860PXA 12800000
&INDEX   SETA  (&INDEX+48) UPDATE LITA POINTER TO RSMST ENTRY  @G860PXA 12850000
         AIF   ('&TYPE' EQ 'RSMST').CODEA                      @G860PXA 12900000
&INDEX   SETA  (&INDEX+48) UPDATE LITA POINTER TO ASMGL ENTRY  @G860PXA 12950000
         AIF   ('&TYPE' EQ 'ASMGL').CODEA                      @G860PXA 13000000
&INDEX   SETA  (&INDEX+48) UPDATE LITA POINTER TO VSMFIX ENTRY @G860PXA 13050000
         AIF   ('&TYPE' EQ 'VSMFIX').CODE1                     @G860PXA 13100000
&INDEX   SETA  (&INDEX+48) UPDATE LITA POINTER TO RSMGL ENTRY  @G860PXA 13150000
         AIF   ('&TYPE' EQ 'RSMGL').CODEA                      @G860PXA 13200000
&INDEX   SETA  (&INDEX+48) UPDATE LITA POINTER TO CPU ENTRY    @G860PXA 13250000
         AIF   ('&TYPE' EQ 'CPU').CODE1                        @G860PXA 13300000
&INDEX   SETA  (&INDEX+72) UPDATE LITA POINTER TO RSMCM ENTRY  @G860PXJ 13350000
         AIF   ('&TYPE' EQ 'RSMCM').CODEA                      @G860PXJ 13400000
&INDEX   SETA  (&INDEX+64) UPDATE LITA POINTER TO IOS ENTRY        @D1A 13450000
         AIF   ('&TYPE' EQ 'IOS').SCOPE                            @D1A 13500000
.BADTYPE AIF   ('&TYPE' NE '').INVTYP                                   13550000
.*       IHB001 TYPE OPERAND REQUIRED NOT SPECIFIED                     13600000
         IHBERMAC 1006,TYPE                                             13650000
         MEXIT                                                          13700000
.INVTYP  ANOP                                                           13750000
.*       IHB002  INVALID TYPE OPERAND SPECIFIED                         13800000
         IHBERMAC 1001,TYPE,&TYPE                                       13850000
         MEXIT                                                          13900000
.SCOPE   ANOP         CHECK LOCKS THAT REQUIRE SCOPE KEYWORD   @G860PXA 13950000
         AIF   (T'&SCOPE EQ 'O').SCOPREQ                       @G860PXA 14000000
         AIF   ('&SCOPE' EQ 'SHR').CODE1A                      @G860PXA 14050000
&INDEX   SETA  (&INDEX+48) UPDATE LITA POINTER TO EXCL ENTRY   @G860PXA 14100000
         AIF   ('&SCOPE' EQ 'EXCL').CODE1A                     @G860PXA 14150000
.*       IHB002 INVALID SCOPE OPERAND SPECIFIED-XXXX           @G860PXA 14200000
         IHBERMAC 1001,SCOPE,&SCOPE                            @G860PXA 14250000
         MEXIT                                                 @G860PXA 14300000
.SCOPREQ ANOP                                                  @G860PXA 14350000
.*       IHB001 SCOPE OPERAND REQUIRED NOT SPECIFIED           @G860PXA 14400000
         IHBERMAC 1006,SCOPE                                   @G860PXA 14450000
         MEXIT                                                 @G860PXA 14500000
.NOSCOPE ANOP                                                  @G860PXA 14550000
.*       IHB280 SCOPE INVALID WITH TYPE=XXX                    @G860PXA 14600000
&MESSAGE SETC  'TYPE='.'&TYPE'                                 @G860PXA 14650000
         IHBERMAC 1020,SCOPE,&MESSAGE                          @G860PXA 14700000
         MEXIT                                                 @G860PXA 14750000
.CODE1   ANOP         CHECK CASES WHERE SCOPE IS NOT ALLOWED   @G860PXA 14800000
         AIF   (T'&SCOPE NE 'O').NOSCOPE                       @G860PXA 14850000
.CODE1A  AIF   (T'&ASCB NE 'O').LOCASCB                        @G860PXA 14900000
         AIF   (T'&LOCKHLD EQ 'O').CODE                        @G387PXR 14950000
.*       IHB280 LOCKHLD INVALID WITH TYPE=XXX                  @G387PXR 15000000
&MESSAGE SETC  'TYPE='.'&TYPE'                                 @G387PXR 15050000
         IHBERMAC 1020,LOCKHLD,&MESSAGE                        @G387PXR 15100000
         MEXIT                                                 @G387PXR 15150000
.LOCASCB ANOP                                                  @G387PXR 15200000
.*       IHB280 ASCB INVALID WITH TYPE=XXX                     @G387PXR 15250000
&MESSAGE SETC 'TYPE='.'&TYPE'                                  @G387PXR 15300000
         IHBERMAC 1020,ASCB,&MESSAGE                           @G387PXR 15350000
         MEXIT                                                 @G387PXR 15400000
.CODE    AIF   ('&ADDR' NE '').ERRADD                                   15450000
         AIF   ('&REGS' EQ 'SAVE').SAVE1                                15500000
         AIF   ('&REGS' EQ 'USE').USE1                                  15550000
&NAME    DS    0H                                                  @P1A 15600000
         AIF   ('&TYPE' EQ 'LOCAL').LOAD                                15650000
         AIF   ('&TYPE' EQ 'CML').LOAD                         @G387PXR 15700000
         L     14,PSALITA-FLC(0,0)      LOCK INTERFACE TABLE ADDR  @P1A 15750000
         AIF   ('&SYSASCE' EQ 'P').NOAR1                           @L2A 15800000
         LAE   14,0(14,0)               GET ALET OF 0              @L2A 15850000
.NOAR1   ANOP                                                           15900000
         LM    11,13,&INDEX.(14)        LOAD ADDRESS OF THE LOCKWORD,  *15950000
                                        PARM LIST POINTER, AND         *16000000
                                        LOCK RTNS ENTRY POINT.     @L2C 16050000
         AGO   .MNLCODE                                                 16100000
.SAVE1   ANOP                                                           16150000
&NAME    LR    15,13                    LOAD SAVE AREA ADDRESS          16200000
         STM   11,14,0(13)              SAVE REGISTERS             @L2C 16250000
         AIF   ('&TYPE' EQ 'LOCAL').LOAD                                16300000
         AIF   ('&TYPE' EQ 'CML').LOAD                         @G387PXR 16350000
         L     14,PSALITA-FLC(0,0)      LOCK INTERFACE TABLE ADDR  @P1A 16400000
         AIF   ('&SYSASCE' EQ 'P').NOAR3                           @L2A 16450000
         LAE   14,0(14,0)               GET ALET OF 0              @L2A 16500000
.NOAR3   ANOP                                                           16550000
         LM    11,13,&INDEX.(14)        LOAD ADDRESS OF THE LOCKWORD,  *16600000
                                        PARM LIST POINTER, AND         *16650000
                                        LOCK RTNS ENTRY POINT.     @L2C 16700000
         AGO   .MNLCODE                                                 16750000
.USE1    ANOP                                                           16800000
&NAME    LR    15,11                    SAVE REGISTER 11                16850000
         LR    0,12                     SAVE REGISTER 12                16900000
         LR    1,13                     SAVE REGISTER 13                16950000
         AIF   ('&TYPE' EQ 'LOCAL').LOAD                                17000000
         AIF   ('&TYPE' EQ 'CML').LOAD                         @G387PXR 17050000
         L     14,PSALITA-FLC(0,0)      LOCK INTERFACE TABLE ADDR  @P1A 17100000
         AIF   ('&SYSASCE' EQ 'P').NOAR5                           @L2A 17150000
         LAE   14,0(14,0)               GET ALET OF 0              @L2A 17200000
.NOAR5   ANOP                                                           17250000
         LM    11,13,&INDEX.(14)        LOAD ADDRESS OF THE LOCKWORD,  *17300000
                                        PARM LIST POINTER, AND         *17350000
                                        LOCK RTNS ENTRY POINT.     @L2C 17400000
         AGO   .MNLCODE                                                 17450000
.LOAD    ANOP                                                           17500000
&INDEX   SETA  (&INDEX+8)                                               17550000
         AIF   ('&TYPE' EQ 'CML').CODEB                        @G387PXR 17600000
         L     14,PSALITA-FLC(0,0)      LOCK INTERFACE TABLE ADDR  @P1A 17650000
         L     13,&INDEX.(14,0)         LOAD ADDRESS OF LOCK RTN   @L2C 17700000
         AGO   .MNLCODE                                                 17750000
.ERRADD  ANOP                                                           17800000
.*       IHB280 ADDR INVALID WITH TYPE=XXX                              17850000
&MESSAGE SETC  'TYPE='.'&TYPE'                                          17900000
         IHBERMAC 1020,ADDR,&MESSAGE                                    17950000
         MEXIT                                                          18000000
.CODEA   ANOP                                                           18050000
&INDEX   SETA  (&INDEX+4)     INCREMENT PAST LK ADDR                    18100000
.* SCOPE KEYWORD IS NOT ALLOWED FOR LOCKS IN THIS PATH         @G860PXA 18150000
         AIF   (T'&SCOPE NE 'O').NOSCOPE                       @G860PXA 18200000
         AIF   (T'&ASCB NE 'O').INVASCB                        @G387PXR 18250000
         AIF   (T'&LOCKHLD EQ 'O').CODEA1                      @G387PXR 18300000
.*       IHB280 LOCKHLD INVALID WITH TYPE=XXX                  @G387PXR 18350000
&MESSAGE SETC 'TYPE='.'&TYPE'                                  @G387PXR 18400000
         IHBERMAC 1020,LOCKHLD,&MESSAGE                        @G387PXR 18450000