       MACRO                                                            03000003
&NAME    SFI   &I                       SET FEATURE BYTES               06000003
         LCLA  &V                                              @ZA00768 06050003
&V       SETA  &I                                              @ZA00768 06100003
         AIF   (&V LE 255).SF1                                 @ZA00768 06150003
         MNOTE 8,'*** IHB421 IMMEDIATE VALUE EXCEEDS ALLOWED MAXIMUM'   06200003
.*                                                             @ZA00768 06210003
.SF1     ANOP                                                  @ZA00768 06250003
&NAME    DC    0H'0',X'EA',AL1(&I)                                      09000003
         MEND                                                           12000003
