         MACRO                                                          03000003
&NAME    SI    &DL,&I                   SUBTRACT IMM.DEC.DATA FROM WR   06000003
         GBLC  &DEF3890(250)                                   @ZA00766 07000003
         GBLA  &VAL3890(250)                                   @ZA00766 08000003
         LCLC  &OP,&LABEL                                      @ZA00766 09000003
         LCLA  &LD,&V,&RL,&M                                   @ZA00766 12000003
&OP      SETC  '49'                                                     15000003
&V       SETA  &I                                                       15600003
&M       SETA  1                                               @ZA00766 15900003
         AIF   (&V LE 65535).SI0                                        16200003
         MNOTE 8,'***  IHB421 IMMEDIATE VALUE EXCEEDS ALLOWED MAXIMUM'  16800003
.SI0     ANOP                                                           17400003
         AIF   (N'&DL EQ 1).SI3                                         18000003
         AIF   ('&DL(1)' LT '16').SI1                                   21000003
         MNOTE 12,'***  IHB349  DISPLACEMENT NOT 0-15 DIGITS'           24000003
.SI1     AIF   ('&DL(2)' NE '0' AND '&DL(2)' LT '5').SI2                27000003
         MNOTE 12,'***  IHB351  LENGTH NOT 1-4 DIGITS'                  30000003
.SI2     ANOP                                                           33000003
&LD      SETA  16*&DL(1)+&DL(2)-1                                       36000003
&NAME    DC    0H'0',X'&OP',AL1(&LD),AL2(&I)                            39000003
         AGO   .END                                                     42000003
.SI3     ANOP                                                           45000003
.SI7     AIF   (&M GT 250).SI8                                 @ZA00766 45100003
&LABEL   SETC  '&DEF3890(&M)'                                  @ZA00766 45200003
.SI5     AIF   ('&DL'   EQ '&LABEL').SI6                       @ZA00766 45300003
&M       SETA  &M+1                                            @ZA00766 45400003
         AGO   .SI7                                            @ZA00766 45500003
.SI8     ANOP                                                  @ZA00766 45600003
         MNOTE 12,'***   IHB425 &DL NOT EQUATED IN DWF MACRO'  @ZA00766 45700003
.SI6     ANOP                                                  @ZA00766 45800003
&RL      SETA  &VAL3890(&M)                                    @ZA00766 45900003
         AIF   ( &RL  LE  03  OR  &RL  GE  16  AND  &RL  LE  19  OR  &RX46000003
               L  GE  32  AND  &RL  LE  35  OR  &RL  GE  48  AND  &RL  X46200003
               LE  51  OR  &RL  GE  64  AND  &RL  LE  67 ).SI4 @ZA00766 46400003
         AIF   ( &RL  GE  80  AND  &RL  LE  83  OR  &RL  GE  96  AND  &X46500003
               RL  LE  99  OR  &RL  GE  112 AND  &RL  LE 115 OR  &RL   X46700003
               GE 128  AND  &RL  LE 131 ).SI4                  @ZA00766 46900003
         AIF   ( &RL  GE 144  AND  &RL  LE  147 OR  &RL  GE  160 AND  &X47000003
               RL  LE  163 OR  &RL  GE  176 AND  &RL  LE  179 OR  &RL  X47200003
               GE  192 AND  &RL  LE  195).SI4                  @ZA00766 47400003
         AIF   ( &RL  GE  208 AND  &RL  LE  211 OR  &RL  GE  224 AND  &X47500003
               RL  LE  227 OR  &RL  GE  240 AND  &RL  LE  243).SI4      47700003
.*                                                             @ZA00766 47750003
         MNOTE 12,'***  IHB351  LENGTH NOT 1-4 DIGITS'                  47800003
.SI4     ANOP                                                           47900003
&NAME    DC    0H'0',X'&OP',AL1(&RL),AL2(&I)                   @ZA00766 84000003
.END     MEND                                                           87000003
