*/* MACCOMP Y-1 SCDMP/PZD10                                          */ 00050000
*/* MACSTAT Y-1 81044/Y02705 HBB3310                                 */ 00100000
*/* APAR OZ51152 - A-TYPE ADDR NOT GENERATED FOR STRHDR WHEN LIST    */ 00150000
*/*                IS REG FORMAT                             @ZA51152*/ 00200000
*/*                                                                  */ 00225000
*/* COPYRIGHT =                                                      */ 00250000
*/*            5645-001                                              */ 00275000
*/*            THIS MODULE IS "RESTRICTED MATERIALS OF IBM"          */ 00300000
*/*            (C) COPYRIGHT IBM CORP. 1980,1997                     */ 00350000
*/*            LICENSED MATERIALS - PROPERTY OF IBM                  */ 00400000
*/*                                                                  */ 00437500
*/*  EXTERNAL CLASSIFICATION: GUPI                                   */ 00475000
*/*  END OF EXTERNAL CLASSIFICATION:                                 */ 00512500
*/*                                                                  */ 00550000
*/* STATUS  = HBB6603                                                */ 00600000
*/*                                                                  */ 00650000
*/* CHANGE ACTIVITY =                                                */ 00700000
*/*   $L1 =    AR    HBB3310 850901 PDXB: AR SUPPORT                 */ 00750000
*/*   $P1 =  PC40312 HBB3310 861227 PDXB: CORRECT TYPE FOR DCB ADDR  */ 00775000
*/*   $D1 =  DR20001 HBB6601 950907 PD00KV: SPLIT FROM SC1CM     @D1A*/ 00787500
*/*   $P2 =  PQC0594 HBB6603 951211 PDKV: DO NOT UPDATE THE REGISTER */ 00790000
*/*                          USED TO PASS THE DCB ADDR (OW16863) @P2A*/ 00792500
*/*   $P3 =  PQC0604 HBB6603 951211 PDKV: PREVENT ASMA094I BY        */ 00795000
*/*                          CHECKING MF= CHAR COUNT             @P3A*/ 00797500
         MACRO                                                          00800000
&NAME    SNAP  &DCB=,&TCB=,&SDATA=,&PDATA=,&STORAGE=,&LIST=,&ID=,&MF=,&X00850000
               STRHDR=,&SUBPLST=                               @G860P1Y 00900000
* /* MACDATE Y-1 860219 LAST UPDATED 11/01/85 HBB3310                */ 00950000
.*A016000,020000,022000,034000,060000,094000,104000,284000       Y02705 01000000
.*A380000,490000,678000                                          Y02705 01050000
.*D330000-378000,384000-386000,484000-488000,638000              Y02705 01100000
.*C034000,276000-278000,320000,326000,392000,432000,438000       Y02705 01150000
.*C574000,588000,594000,616000,620000,018000,420000,634000       Y02705 01200000
         LCLC  &C1,&C2,&GNAME                                           01250000
         LCLB  &B0,&B1,&B2,&B3,&B4,&B5,&B6,&B7,&B8,&B9,&B10,&B11,&B12,&X01300000
               B13,&B14,&B15,&B16                               G33SPHW 01350000
         LCLB  &B17,&B18,&B19          SQA,LSQA,SWA              Y02705 01400000
         LCLB  &B20,&B21,&B22,&B23,&B24,&B25                            01450000
         LCLB  &B26,&B27,&B28      SUM, ALLVNUC, SUBPLST       @G860P1Y 01500000
         LCLB  &B30                           G382P12                   01550000
         LCLB  &VS2SE3            MVS SYSTEM EXTENSION 1.3.0    G382P12 01600000
         LCLB  &OSVS2R2           OSVS2R2 LEVEL OF PARAM LIST    Y02705 01650000
         LCLB  &OSENVS2           OSVS2R2 ENHANCED SNAP         G33SPHW 01700000
         LCLB  &MVSE               HBB2102 INDICATOR           @G860P1Y 01750000
         LCLA  &FLAGS4,&CTR3,&CTR4,&CTR5,&CTR7,&CTR8,&CTRA,&CTRB        01800000
         LCLC  &C3,&C4                                                  01850000
         LCLA  &FLAGS3                 FLAG FIELD                Y02705 01900000
         LCLA  &FLAGS5                 OPTIONS REQUESTED       @G860P1Y 01950000
         LCLA   &FLAGS1,&FLAGS2,&CTR1,&CTR2,&DISP              @G382P12 02000000
         ACTR   9000                                                    02050000
&B0      SETB  1                  INDICATES SNAP REQUEST         Y02705 02100000
&OSVS2R2 SETB  1                  INDICATES AN OSVS2R2 LEVEL     Y02705 02150000
&OSENVS2 SETB  1                  INDICATES A SNAP ENHANCED     G33SPHW 02200000
&VS2SE3  SETB  1                  INDICATES SNAP ENHANCED 3    @G382P12 02250000
         GBLC  &SYSASCE           ASC ENVIRONMENT                  @L1A 02300000
         SYSSTATE TEST            WHAT IS ASC ENVIRONMENT          @L1A 02350000
         AIF ('&SYSASCE' EQ 'P').INVKSNP PRIMARY, PROCESS NORMALLY @L1A 02400000
         MNOTE 0,'*** SNAPX MACRO SUBSTITUTED FOR SNAP MACRO BECAUSE ASX02450000
               CENV=AR/ANY SPECIFIED ON PREVIOUSLY ISSUED SYSSTATE MACRX02500000
               O'                                                  @L1A 02550000
&NAME    SNAPX DCB=&DCB,TCB=&TCB,SDATA=&SDATA,PDATA=&PDATA,            X02600000
               STORAGE=&STORAGE,LIST=&LIST,ID=&ID,MF=&MF,              X02650000
               STRHDR=&STRHDR,SUBPLST=&SUBPLST                     @L1A 02700000
         MEXIT                                                     @L1A 02750000
.INVKSNP ANOP                                                      @L1A 02800000
         AIF   (T'&MF EQ 'O').STAND    STANDARD FORM             Y02705 02850000
         AIF   (K'&MF LT 3).STAND      LESS THAN THREE MF= CHARS   @P3A 02875000
         AIF   ('&MF'(1,3) EQ '(E,' AND '&TCB' EQ '''S''').EXCUR Y02705 02900000
.STAND   ANOP                                                    Y02705 02950000
&B1      SETB  ('&TCB' NE '')                                           03000000
.********************************************************************** 03050000
.*                                                                    * 03100000
.*      PARSE THE SDATA PARAMETERS, AND SET INDICATORS                * 03150000
.*                                                            @G860P33* 03200000
.********************************************************************** 03250000
.EXCUR   ANOP                                                    Y02705 03300000
         AIF   ('&SDATA' EQ '').CHKSTR                                  03350000
         AIF    ('&SDATA'(1,1) EQ '(').ABC2                             03400000
&B2      SETB  ('&SDATA' EQ 'ALL' OR '&SDATA' EQ 'CB')                  03450000
&B3      SETB  ('&SDATA' EQ 'ALL' OR '&SDATA' EQ 'TRT')                 03500000
&B4      SETB  ('&SDATA' EQ 'ALL' OR '&SDATA' EQ 'NUC')                 03550000
&B7      SETB  ('&SDATA' EQ 'ALL' OR '&SDATA' EQ 'Q')                   03600000
&B17     SETB  ('&SDATA' EQ 'ALL' OR '&SDATA' EQ 'SQA')          Y02705 03650000
&B18     SETB  ('&SDATA' EQ 'ALL' OR '&SDATA' EQ 'LSQA')         Y02705 03700000
&B19     SETB  ('&SDATA' EQ 'ALL' OR '&SDATA' EQ 'SWA')          Y02705 03750000
&B20   SETB  ('&SDATA' EQ 'ALL' OR '&SDATA' EQ 'DM')            G33SPHW 03800000
&B21   SETB  ('&SDATA' EQ 'ALL' OR '&SDATA' EQ 'IO')            G33SPHW 03850000
&B22   SETB  ('&SDATA' EQ 'ALL' OR '&SDATA' EQ 'ERR')           G33SPHW 03900000
&B30   SETB  ('&SDATA' EQ 'ALL' OR '&SDATA' EQ 'PCDATA')       @G382P12 03950000
&B26   SETB  ('&SDATA' EQ 'ALL' OR '&SDATA' EQ 'SUM')          @G860P1Y 04000000
&B27   SETB  ('&SDATA' EQ 'ALLVNUC')                           @G860P1Y 04050000
&CTR1    SETA  &B2+&B3+&B4+&B17+&B18+&B19+&B7+&B20+&B21+&B22+&B30+&B26+X04100000
               &B27                                            @G860P1Y 04150000
         AIF   ('&CTR1' EQ '0').MSG2                                    04200000
         AGO   .CHKSTR                                                  04250000
.ABC2    ANOP                                                           04300000
&CTR1    SETA  N'&SDATA                                                 04350000
&CTR2    SETA  0                                                        04400000
.LOOPA   ANOP                                                           04450000
&CTR2    SETA  &CTR2+1                                                  04500000
&C1      SETC  '&SDATA(&CTR2)'                                          04550000
         AIF   ('&C1' EQ 'TRT').SETTRT                                  04600000
         AIF   ('&C1' EQ 'NUC').SETNUC                                  04650000
         AIF   ('&C1' EQ 'CB').SETCB                                    04700000
         AIF   ('&C1' EQ 'Q').SETQ                                      04750000
         AIF   ('&C1' EQ 'SQA').SETSQA      IS SQA SPECIFIED     Y02705 04800000
         AIF   ('&C1' EQ 'LSQA').SETLSQA    IS LSQA SPECIFIED    Y02705 04850000
         AIF   ('&C1' EQ 'SWA').SETSWA      IS SWA SPECIFIED     Y02705 04900000
         AIF   ('&C1' EQ 'DM').SETDM        IS DM SPECIFIED     G33SPHW 04950000
         AIF   ('&C1' EQ 'IO').SETIO        IS IO SPECIFIED     G33SPHW 05000000
         AIF   ('&C1' EQ 'ERR').SETERR      IS ERR SPECIFIED    G33SPHW 05050000
         AIF   ('&C1' EQ 'PCDATA').SETPC    IS PCDATA SPEC     @G382P12 05100000
         AIF   ('&C1' EQ 'SUM').SETSUM  IS SUMMARY SPECIFIED   @G860P1Y 05150000
         AIF   ('&C1' EQ 'ALLVNUC').SETANUC  IS ALLVNUC REQSTD @G860P1Y 05200000
         AIF   ('&C1' EQ 'ALL').SETALL                                  05250000
         AGO   .MSG2                                                    05300000
.CHKOPT  ANOP                                                           05350000
         AIF   ('&CTR2' NE '&CTR1').LOOPA                               05400000
         AGO   .CHKSTR                                                  05450000
.SETTRT  ANOP                                                           05500000
&B3      SETB  1                                                        05550000
         AGO   .CHKOPT                                                  05600000
.SETNUC  ANOP                                                           05650000
&B4      SETB  1                                                        05700000
         AGO   .CHKOPT                                                  05750000
.SETCB   ANOP                                                           05800000
&B2      SETB  1                                                        05850000
         AGO   .CHKOPT                                                  05900000
.SETQ    ANOP                                                           05950000
&B7      SETB  1                                                        06000000
         AGO   .CHKOPT                                                  06050000
.SETSQA  ANOP                          SQA SPECIFIED             Y02705 06100000
&B17     SETB  1                       SET SQA INDICATOR         Y02705 06150000
         AGO   .CHKOPT                 RETURN                    Y02705 06200000
.SETLSQA ANOP                          LSQA SPECIFIED            Y02705 06250000
&B18     SETB  1                       SET LSQA INDICATOR        Y02705 06300000
         AGO   .CHKOPT                 RETURN                    Y02705 06350000
.SETSWA  ANOP                          SWA SPECIFIED             Y02705 06400000
&B19     SETB  1                       SET SWA INDICATOR         Y02705 06450000
         AGO   .CHKOPT                 RETURN                    Y02705 06500000
.SETDM   ANOP                                                   G33SPHW 06550000
&B20     SETB  1                       DM SPECIFIED             G33SPHW 06600000
         AGO .CHKOPT                   RETURN                   G33SPHW 06650000
.SETIO   ANOP                          IO SPECIFIED             G33SPHW 06700000
&B21     SETB  1                       SET IO INDICATOR         G33SPHW 06750000
         AGO .CHKOPT                   RETURN                   G33SPHW 06800000
.SETERR  ANOP                          ERR SPECIFIED            G33SPHW 06850000
&B22     SETB  1                       SET ERR INDICATOR        G33SPHW 06900000
         AGO .CHKOPT                   RETURN                   G33SPHW 06950000
.SETPC   ANOP                          PCDATA SPECIFIED        @G382P12 07000000
&B30     SETB  1                       SET PCDATA INDICATOR    @G382P12 07050000
         AGO .CHKOPT                   RETURN                  @G382P12 07100000
.SETSUM  ANOP                      SUMMARY DUMP REQUESTED      @G860P1Y 07150000
&B26     SETB  1                   SET SUMMARY INDICATOR       @G860P1Y 07200000
         AGO   .CHKOPT             RETURN                      @G860P1Y 07250000
.SETANUC ANOP                      VIRTUAL NUCLEUS REQUESTED   @G860P1Y 07300000
&B27     SETB  1                   SET ALLVNUC INDICATOR       @G860P1Y 07350000
         AGO   .CHKOPT             RETURN                      @G860P1Y 07400000
.SETALL  ANOP                                                           07450000
&B2      SETB  1                                                        07500000
&B3      SETB  1                                                        07550000
&B4      SETB  1                                                        07600000
&B7      SETB  1                                                        07650000
&B17     SETB  1                       SQA INDICATOR             Y02705 07700000
&B18     SETB  1                       LSQA INDICATOR            Y02705 07750000
&B19     SETB  1                       SWA  INDICATOR            Y02705 07800000
&B20     SETB  1                       DM  INDICATOR            G33SPHW 07850000
&B21     SETB  1                       IO  INDICATOR            G33SPHW 07900000
&B22     SETB  1                       ERR INDICATOR            G33SPHW 07950000
&B30     SETB  1                       PCDATA INDICATOR        @G382P12 08000000
&B26     SETB  1                       SUMMARY INDICATOR       @G860P1Y 08050000
         AGO   .CHKOPT                 RETURN                  @G860P1Y 08100000
.********************************************************************** 08150000
.*                                                                    * 08200000
.*      PARSE THE STORAGE, STRHDR, SUBPLST PARAMETERS                 * 08250000
.*                                                            @G860P33* 08300000
.********************************************************************** 08350000
.CHKSTR  ANOP                                                           08400000
&B5      SETB  ('&STORAGE' NE '')                                       08450000
&B16     SETB  ('&LIST' NE '')                                          08500000
&B23    SETB   ('&STRHDR' NE '')       WAS STRHDR SPECIFIED     G33SPHW 08550000
&B28     SETB  ('&SUBPLST' NE '')  WAS SUBPLST SPECIFIED       @G860P1Y 08600000
         AIF   ('&B28' EQ '0').NOMVSE SUBPLST OPTION SPECIFIED @G860P1Y 08650000
&MVSE    SETB  1                 INDICATE HBB2102 LEVEL        @G860P1Y 08700000
.NOMVSE  ANOP                  USE PRE-HBB2102 PARMLIST        @G860P1Y 08750000
         AIF   ('&B5' EQ '1' AND '&B16' EQ '1').MSG4                    08800000
&B25     SETB  ('&B5' EQ '1' OR '&B16' EQ '1')                  G33SPHW 08850000
         AIF   ('&B23' EQ '1' AND '&B25' EQ '0').MSG9           G33SPHW 08900000
         AIF   ('&B23' NE '1').SKIPT                            G33SPHW 08950000
&CTR4    SETA  N'&STRHDR                                        G33SPHW 09000000
         AIF  (&CTR4 LT 1).MSG7                                 G33SPHW 09050000
.SKIPT   ANOP                                                   G33SPHW 09100000
         AIF   ('&B5' EQ '0').CHKSTRB                                   09150000
&CTR1    SETA  N'&STORAGE                                               09200000
         AIF   (&CTR1 LT 2).MSG4                               AS100400 09250000
         AIF   ('&B23' EQ '0').NOSHA   STRHDR SPECIFIED         G33SPHW 09300000
&CTR3    SETA  N'&STRHDR*2             GET NUMBER OF HEADER*2   G33SPHW 09350000
         AIF  ( &CTR3 GT &CTR1).MSG8 TOO MANY HEADERS           G33SPHW 09400000
.NOSHA   ANOP                                                   G33SPHW 09450000
.CHKSTRA ANOP                                                           09500000
&CTR1    SETA  &CTR1-2                                                  09550000
         AIF   (&CTR1 EQ 0).CHKSTRC                            AS100400 09600000
         AIF   (&CTR1 LT 1).MSG4                          0880 AS100400 09650000
         AGO   .CHKSTRA                                                 09700000
.CHKSTRB ANOP                                                           09750000
         AIF   ('&B16' EQ '0').CHKSTRC                                  09800000
         AIF   (N'&LIST NE 1).MSG4      LIST PARSM^=1                   09850000
         AIF   ('&B23' EQ '0').CHKSTRC  STRHDR SPECIFIED        G33SPHW 09900000
         AIF   (N'&STRHDR NE 1).MSGA     LIST FORMAT            G33SPHW 09950000
.CHKSTRC ANOP                                                           10000000
&B6      SETB  ('&ID' NE '')                                            10050000
.********************************************************************** 10100000
.*                                                                    * 10150000
.*      PARSE THE PDATA PARAMETERS AND SET INDICATORS                 * 10200000
.*                                                            @G860P33* 10250000
.********************************************************************** 10300000
         AIF   ('&PDATA' EQ '').SETFLAG                                 10350000
         AIF   ('&PDATA'(1,1) EQ '(').ABC8                              10400000
&B8 SETB ('&PDATA' EQ 'SAH' OR '&PDATA' EQ 'SA' OR '&PDATA' EQ 'ALL')   10450000
&B9      SETB  ('&PDATA' EQ 'SAH')                                      10500000
&B10      SETB  ('&PDATA' EQ 'REGS' OR '&PDATA' EQ 'ALL')               10550000
&B11 SETB ('&PDATA' EQ 'LPA' OR '&PDATA' EQ 'ALLPA' OR '&PDATA' EQ 'ALLX10600000
               ')                                                       10650000
&B12 SETB ('&PDATA' EQ 'JPA' OR '&PDATA' EQ 'ALLPA' OR '&PDATA' EQ 'ALLX10700000
               ')                                                       10750000
.PDATA1  ANOP                                                           10800000
&B13     SETB  ('&PDATA' EQ 'PSW' OR '&PDATA' EQ 'ALL')                 10850000
&B14     SETB  ('&PDATA' EQ 'SPLS' OR '&PDATA' EQ 'ALL')                10900000
&B15     SETB  ('&PDATA' EQ 'SUBTASKS' OR '&PDATA' EQ 'ALL')   @G860P33 10950000
&CTR1    SETA  &B8+&B9+&B10+&B11+&B12+&B13+&B14+&B15           @G860P33 11000000
         AIF   ('&CTR1' EQ '0').MSG3                                    11050000
         AGO   .SETFLAG                                                 11100000
.ABC8    ANOP                                                           11150000
&CTR1    SETA  N'&PDATA                                                 11200000
&CTR2    SETA  0                                                        11250000
.LOOPB   ANOP                                                           11300000
&CTR2    SETA  &CTR2+1                                                  11350000
&C1      SETC  '&PDATA(&CTR2)'                                          11400000
         AIF   ('&C1' EQ 'SA').SETSA                                    11450000
         AIF   ('&C1' EQ 'SAH').SETSAH                                  11500000
         AIF   ('&C1' EQ 'REGS').SETREGS                                11550000
         AIF   ('&C1' EQ 'LPA').SETLPA                      ZMXXXXX     11600000
         AIF   ('&C1' EQ 'JPA').SETJPA                                  11650000
         AIF   ('&C1' EQ 'ALLPA').SETALPA                               11700000
         AIF   ('&C1' EQ 'PSW').SETPSW                                  11750000
         AIF   ('&C1' EQ 'SPLS').SETSPLS                                11800000
         AIF   ('&C1' EQ 'SUBTASKS').SETASK SUBTASKS SPECIFIED @G860P33 11850000
         AIF   ('&C1' EQ 'ALL').SETPALL                                 11900000
         AGO   .MSG3                                                    11950000
.CHKPMOR ANOP                                                           12000000
         AIF   ('&CTR2' NE '&CTR1').LOOPB                               12050000
         AGO   .SETFLAG                                                 12100000
.SETSA    ANOP                                                          12150000
&B8      SETB  1                                                        12200000
         AGO   .CHKPMOR                                                 12250000
.SETSAH  ANOP                                                           12300000
&B8      SETB    1                                                      12350000
&B9      SETB  1                                                        12400000
         AGO    .CHKPMOR                                                12450000
.SETREGS ANOP                                                           12500000
&B10     SETB  1                                                        12550000
         AGO   .CHKPMOR                                                 12600000
.SETLPA ANOP                                                            12650000
&B11     SETB  1                                                        12700000
         AGO   .CHKPMOR                                                 12750000
.SETJPA  ANOP                                                           12800000
&B12     SETB   1                                                       12850000
         AGO   .CHKPMOR                                                 12900000
.SETALPA  ANOP                                                          12950000
&B11     SETB  1                                                        13000000
&B12     SETB  1                                                        13050000
         AGO   .CHKPMOR                                                 13100000
.SETPSW   ANOP                                                          13150000
&B13     SETB  1                                                        13200000
         AGO   .CHKPMOR                                                 13250000
.SETSPLS  ANOP                                                          13300000
&B14     SETB   1                                                       13350000
         AGO   .CHKPMOR                                                 13400000
.SETASK   ANOP                                                 @G860P33 13450000
&B15     SETB   1                  INDICATE SUBTASKS SPECIFIED @G860P33 13500000
         AGO   .CHKPMOR                                        @G860P33 13550000
.SETPALL  ANOP                                                          13600000
&B8      SETB  1                                                        13650000
&B10     SETB  1                                                        13700000
&B11     SETB  1                                                        13750000
&B12     SETB  1                                                        13800000
&B13     SETB  1                                                        13850000
&B14     SETB  1                                                        13900000
&B15     SETB  1                   INDICATE SUBTASKS SPECIFIED @G860P33 13950000
.SETFLAG  ANOP                                                          14000000
         AIF   ('&B28' EQ '1' AND '&B14' EQ '1').MSGSUBP       @G860P1Y 14050000
         AIF   ('&B28' EQ '0').NOTSUBP  WAS SUBPLST SPECIFIED  @G860P1Y 14100000
         AIF   (N'&SUBPLST NE 1).MSGNOTL  YES, MUST BE 1 ENTRY @G860P1Y 14150000
.NOTSUBP ANOP                      SUBPLST WASN'T SPECIFIED    @G860P1Y 14200000
&FLAGS1  SETA  128*&B4+64*&B17+32*&B18+16*&B19+8*&B3+4*&B2+2*&B7+1*&B20 14250000
&FLAGS2  SETA  128*&B8+64*&B9+32*&B10+16*&B11+8*&B12+4*&B13+2*&B14+1*&BX14300000
               15                                                       14350000
&FLAGS3  SETA  64*&OSVS2R2+32*&OSENVS2+16*&B0+8*&B6+4*&B1+2*&B5+2*&B16+X14400000
               1*&B23                                           G33SPHW 14450000
&FLAGS4  SETA  128*&B21+64*&B22+32*&B30+16*&B26+8*&B27 OPTIONS @G860P1Y 14500000
&FLAGS5  SETA  128*&VS2SE3+4*&MVSE+2*&B28    OPTIONS REQUESTED @G860P1Y 14550000
         AIF   ('&DCB' EQ '' AND ('&MF' EQ '')).MSG1                    14600000
         AIF   ('&MF' EQ '').STYPE                                      14650000
         AIF   ('&MF' EQ 'L').LTYPE                                     14700000
         AIF   ('&MF'(1,3) NE '(E,').MSG5                               14750000
.********************************************************************** 14800000
.*                                                                    * 14850000
.*      PROCESS THE EXECUTE FORM                                      * 14900000
.*                                                            @G860P33* 14950000
.********************************************************************** 15000000
         AIF ('&NAME' EQ '').NONM                                       15050000
&NAME    DS    0H                                                  0918 15100000
.NONM    ANOP                                                           15150000
&C1      SETC  '&MF(2)'                                                 15200000
         AIF   ('&C1'(1,1) EQ '(').REG                                  15250000
         LA    1,&MF(2)                                            0918 15300000
         AGO   .CONT0                                                   15350000
.REG     ANOP                                                           15400000
         AIF   ('&C1' EQ '(1)').CONT0                                   15450000
         LR    1,&C1         GET ADDR OF PARM LIST                      15500000
.CONT0   ANOP                                                           15550000
         AIF   ('&DCB' EQ '').NODCB                                     15600000
         AIF   ('&DCB'(1,1) EQ '(').REGDCB                              15650000
         LA    0,&DCB               GET DCB ADDRESS                     15700000
         ST    0,8(0,1)             STORE INTO PARAMETER LIST    Y02705 15750000
         AGO    .NODCB                                                  15800000
.REGDCB  ANOP                                                           15850000
.*                                                                 @P2D 15900000
         ST    &DCB,8(0,1)   STORE DCB ADDR INTO PARAM LIST      Y02705 15950000
         MVI   8(1),0        CLEAR HIGH ORDER BYTE OF DCB ADR      @P2A 15975000
.NODCB   ANOP                                                           16000000
         OI    1(1),&FLAGS3        SET OPTION FLAGS              Y02705 16050000
         OI    2(1),&FLAGS5        SET OPTION FLAG 2           @G860P1Y 16100000
.CKSDATA AIF   (T'&SDATA EQ 'O').CKPDATA    IS SDATA SPECIFIED   Y02705 16150000
         MVI   4(1),&FLAGS1        SET OPTION FLAGS              Y02705 16200000
         MVI   5(1),&FLAGS4        SET OPTIONS FLAGS            G33SPHW 16250000
.CKPDATA AIF   (T'&PDATA EQ 'O').GO1        IS PDATA SPECIFIED   Y02705 16300000
         MVI   6(1),&FLAGS2        SET OPTION FLAGS              Y02705 16350000
.GO1     ANOP                                                    Y02705 16400000
         AIF   ('&B1' EQ '0').NOTCB         IS TCB SPECIFIED     Y02705 16450000
         AIF   ('&TCB'(1,1) EQ '(').REGTCB  IS TCB ADDR IN A REG Y02705 16500000
         L     0,&TCB                       ADDRESS OF TCB       Y02705 16550000
         ST    0,12(0,1)                    INTO PARAMETER LIST  YM1995 16600000
         AGO   .GO2                         GO CHECK FOR STORAGE Y02705 16650000
.NOTCB   AIF   ('&TCB' EQ '''S''').CURRTCB  CURRENT TCB REQUEST  YO2705 16700000
         AGO   .GO2                         GO CHECK FOR STORAGE Y02705 16750000
.CURRTCB NI    1(1),X'FB'                   CURRENT TCB REQUEST  Y02705 16800000
         AGO   .GO2                         GO CHECK FOR STORAGE Y02705 16850000
.REGTCB  ANOP                                                    Y02705 16900000
         ST    &TCB,12(0,1)                 TCB ADDR INTO PARAM  YM1995 16950000
.GO2     ANOP                                                    Y02705 17000000
         AIF   ('&B5' EQ '0').NOSHOT                                    17050000
&CTR1    SETA  N'&STORAGE                                               17100000
         AIF   ('&MVSE' EQ '0').NOMVSE1  HBB2102 PLIST         @G860P1Y 17150000
         LA    0,28(0,1)          SET UP SNAPSHOT LIST ADDRESS @G860P1Y 17200000
         AGO   .STPARM            CONTINUE PROCESSING PARMLIST @G860P1Y 17250000
.NOMVSE1 ANOP                      NOT HBB2102 PARMLIST        @G860P1Y 17300000
         LA    0,24(0,1)           USE PRE-HBB2102 LNTH        @G860P1Y 17350000
.STPARM  ANOP                     CONTINUE PROCESSING PARMLIST @G860P1Y 17400000
         ST    0,16(0,1)           STORE INTO PARAMETER LIST     Y02705 17450000
         AIF   ('&B23' EQ '0').NOHEAD   STRHDR SPECIFIED        G33SPHW 17500000
&CTR4    SETA  N'&STRHDR                NUMBER OF HEADERS       G33SPHW 17550000
&CTR8    SETA  &CTR1*4                  DISPLACEMENT            G33SPHW 17600000
         AIF   ('&MVSE' EQ '0').NOMVSE2  HBB2102 PLIST         @G860P1Y 17650000
&CTR8    SETA  &CTR8+28                 SKIP LIST              @G860P1Y 17700000
         AGO   .STHEAD             SET UP HEADER ADDRESS       @G860P1Y 17750000
.NOMVSE2 ANOP                      NOT HBB2102 PARMLIST        @G860P1Y 17800000
&CTR8    SETA  &CTR8+24     SKIP LIST PASS HBB2102 LIST        @G860P1Y 17850000
.STHEAD  ANOP                      SET UP HEADER ADDRESS       @G860P1Y 17900000
         LA    0,&CTR8.(0,1)       SET UP HEADER ADDRESS        G33SPHW 17950000