*/* COPYRIGHT =                                                      */ 00033300
*/*            5645-001                                              */ 00066600
*/*            THIS MODULE IS "RESTRICTED MATERIALS OF IBM"          */ 00100000
*/*            (C) COPYRIGHT IBM CORP. 1980, 1997                @D1C*/ 00150000
*/*            LICENSED MATERIALS - PROPERTY OF IBM                  */ 00200000
*/*                                                                  */ 00237500
*/*  EXTERNAL CLASSIFICATION: GUPI                                   */ 00275000
*/*  END OF EXTERNAL CLASSIFICATION:                                 */ 00312500
*/*                                                                  */ 00350000
*/* STATUS  = HBB6603                                                */ 00400000
*/*                                                                  */ 00450000
*/* CHANGE ACTIVITY =                                                */ 00500000
*/*   $L1 =    AR    HBB3310 850901 PDXB: AR SUPPORT                 */ 00550000
*/*   $L2 =  DATASPAC HBB3310 861029 PDT8: DATA SPACES SUPPORT       */ 00575000
*/*   $P1 =  PC41356  HBB3310 870831 PDT8: CORRECT SETTING OF LOCAL  */ 00581200
*/*                                        VARIABLE FOR DSPSTOR      */ 00587400
*/*                                        KEYWORD                   */ 00593600
*/*   $01 =  OY38523 HBB3310 901212 PDXB: FIX OFFSETS                */ 00596800
*/*   $D1 =  DR20001 HBB6601 950907 PD00KV: SPLIT FROM SC1CM     @D1A*/ 00614500
*/*   $P2 =  PQC0594 HBB6603 951211 PDKV: DO NOT UPDATE THE REGISTER */ 00618000
*/*                          USED TO PASS THE DCB ADDR (OW16863) @P2A*/ 00621500
*/*   $P3 =  PQC0604 HBB6603 951211 PDKV: PREVENT ASMA094I BY        */ 00625000
*/*                          CHECKING MF= CHAR COUNT             @P3A*/ 00628500
* /* MACCOMP Y-1 SCDMP/PZD10                                     @D1C*/ 00632200
* /* MACSTAT Y-1 85300/Y02705 OS/VS2 HBB3310                         */ 00650000
* /* APAR OZ51152 - A-TYPE ADDR NOT GENERATED FOR STRHDR WHEN LIST   */ 00700000
* /*                IS REG FORMAT                            @ZA51152*/ 00750000
         MACRO                                                          00800000
&NAME    SNAPX &DCB=,&TCB=,&SDATA=,&PDATA=,&STORAGE=,&LIST=,&ID=,&MF=,&X00850000
               STRHDR=,&SUBPLST=,&DSPSTOR=                         @L2C 00900000
         LCLC  &C1,&C2,&GNAME                                           00950000
         LCLB  &B0,&B1,&B2,&B3,&B4,&B5,&B6,&B7,&B8,&B9,&B10,&B11,&B12,&X01000000
               B13,&B14,&B15,&B16                               G33SPHW 01050000
         LCLB  &B17,&B18,&B19          SQA,LSQA,SWA              Y02705 01100000
         LCLB  &B20,&B21,&B22,&B23,&B24,&B25                            01150000
         LCLB  &B26,&B27,&B28,&B29   SUM, ALLVNUC, SUBPLST,DSPSTOR @L2C 01200000
         LCLB  &B30                           G382P12                   01250000
         LCLB  &VS2SE3            MVS SYSTEM EXTENSION 1.3.0    G382P12 01300000
         LCLB  &OSVS2R2           OSVS2R2 LEVEL OF PARAM LIST    Y02705 01350000
         LCLB  &OSENVS2           OSVS2R2 ENHANCED SNAP         G33SPHW 01400000
         LCLB  &MVSE               OS/VS2 HBB2102 INDICATOR    @G860P1Y 01450000
         LCLB  &AR                 OS/VS2 HBB3310 INDICATOR        @L1A 01500000
         LCLA  &FLAGS4,&CTR3,&CTR4,&CTR5,&CTR7,&CTR8,&CTRA,&CTRB        01550000
         LCLC  &C3,&C4                                                  01600000
         LCLA  &FLAGS3                 FLAG FIELD                Y02705 01650000
         LCLA  &FLAGS5                 OPTIONS REQUESTED       @G860P1Y 01700000
         LCLA   &FLAGS1,&FLAGS2,&CTR1,&CTR2,&DISP              @G382P12 01750000
         ACTR   9000                                                    01800000
         LCLC  &LA                      "LA" OR "LAE" VIA SYSSTATE @L1A 01850000
         GBLC  &SYSASCE                                            @L1A 02200000
         SYSSTATE TEST                  TEST ASC ENVIRONMENT       @L1A 02250000
&LA      SETC  'LA'                     MUST USE LA INSTRUCTION    @L1A 02260000
         AIF   ('&SYSASCE' EQ 'P').NOLAE                           @L1A 02270000
&LA      SETC  'LAE'                    MUST USE LAE               @L1A 02280000
.NOLAE   ANOP                                                      @L1A 02290000
&B0      SETB  1                  INDICATES SNAP REQUEST         Y02705 02300000
&OSVS2R2 SETB  1                  INDICATES AN OSVS2R2 LEVEL     Y02705 02350000
&OSENVS2 SETB  1                  INDICATES A SNAP ENHANCED     G33SPHW 02400000
&VS2SE3  SETB  1                  INDICATES SNAP ENHANCED 3    @G382P12 02450000
         AIF   (T'&MF EQ 'O').STAND    STANDARD FORM             Y02705 02500000
         AIF   (K'&MF LT 3).STAND      LESS THAN THREE MF= CHARS   @P3A 02525000
         AIF   ('&MF'(1,3) EQ '(E,' AND '&TCB' EQ '''S''').EXCUR Y02705 02550000
.STAND   ANOP                                                    Y02705 02600000
&B1      SETB  ('&TCB' NE '')                                           02650000
.********************************************************************** 02700000
.*                                                                    * 02750000
.*      PARSE THE SDATA PARAMETERS, AND SET INDICATORS                * 02800000
.*                                                            @G860P33* 02850000
.********************************************************************** 02900000
.EXCUR   ANOP                                                    Y02705 02950000
         AIF   ('&SDATA' EQ '').CHKSTR                                  03000000
         AIF    ('&SDATA'(1,1) EQ '(').ABC2                             03050000
&B2      SETB  ('&SDATA' EQ 'ALL' OR '&SDATA' EQ 'CB')                  03100000
&B3      SETB  ('&SDATA' EQ 'ALL' OR '&SDATA' EQ 'TRT')                 03150000
&B4      SETB  ('&SDATA' EQ 'ALL' OR '&SDATA' EQ 'NUC')                 03200000
&B7      SETB  ('&SDATA' EQ 'ALL' OR '&SDATA' EQ 'Q')                   03250000
&B17     SETB  ('&SDATA' EQ 'ALL' OR '&SDATA' EQ 'SQA')          Y02705 03300000
&B18     SETB  ('&SDATA' EQ 'ALL' OR '&SDATA' EQ 'LSQA')         Y02705 03350000
&B19     SETB  ('&SDATA' EQ 'ALL' OR '&SDATA' EQ 'SWA')          Y02705 03400000
&B20   SETB  ('&SDATA' EQ 'ALL' OR '&SDATA' EQ 'DM')            G33SPHW 03450000
&B21   SETB  ('&SDATA' EQ 'ALL' OR '&SDATA' EQ 'IO')            G33SPHW 03500000
&B22   SETB  ('&SDATA' EQ 'ALL' OR '&SDATA' EQ 'ERR')           G33SPHW 03550000
&B30   SETB  ('&SDATA' EQ 'ALL' OR '&SDATA' EQ 'PCDATA')       @G382P12 03600000
&B26   SETB  ('&SDATA' EQ 'ALL' OR '&SDATA' EQ 'SUM')          @G860P1Y 03650000
&B27   SETB  ('&SDATA' EQ 'ALLVNUC')                           @G860P1Y 03700000
&CTR1    SETA  &B2+&B3+&B4+&B17+&B18+&B19+&B7+&B20+&B21+&B22+&B30+&B26+X03750000
               &B27                                            @G860P1Y 03800000
         AIF   ('&CTR1' EQ '0').MSG2                                    03850000
         AGO   .CHKSTR                                                  03900000
.ABC2    ANOP                                                           03950000
&CTR1    SETA  N'&SDATA                                                 04000000
&CTR2    SETA  0                                                        04050000
.LOOPA   ANOP                                                           04100000
&CTR2    SETA  &CTR2+1                                                  04150000
&C1      SETC  '&SDATA(&CTR2)'                                          04200000
         AIF   ('&C1' EQ 'TRT').SETTRT                                  04250000
         AIF   ('&C1' EQ 'NUC').SETNUC                                  04300000
         AIF   ('&C1' EQ 'CB').SETCB                                    04350000
         AIF   ('&C1' EQ 'Q').SETQ                                      04400000
         AIF   ('&C1' EQ 'SQA').SETSQA      IS SQA SPECIFIED     Y02705 04450000
         AIF   ('&C1' EQ 'LSQA').SETLSQA    IS LSQA SPECIFIED    Y02705 04500000
         AIF   ('&C1' EQ 'SWA').SETSWA      IS SWA SPECIFIED     Y02705 04550000
         AIF   ('&C1' EQ 'DM').SETDM        IS DM SPECIFIED     G33SPHW 04600000
         AIF   ('&C1' EQ 'IO').SETIO        IS IO SPECIFIED     G33SPHW 04650000
         AIF   ('&C1' EQ 'ERR').SETERR      IS ERR SPECIFIED    G33SPHW 04700000
         AIF   ('&C1' EQ 'PCDATA').SETPC    IS PCDATA SPEC     @G382P12 04750000
         AIF   ('&C1' EQ 'SUM').SETSUM  IS SUMMARY SPECIFIED   @G860P1Y 04800000
         AIF   ('&C1' EQ 'ALLVNUC').SETANUC  IS ALLVNUC REQSTD @G860P1Y 04850000
         AIF   ('&C1' EQ 'ALL').SETALL                                  04900000
         AGO   .MSG2                                                    04950000
.CHKOPT  ANOP                                                           05000000
         AIF   ('&CTR2' NE '&CTR1').LOOPA                               05050000
         AGO   .CHKSTR                                                  05100000
.SETTRT  ANOP                                                           05150000
&B3      SETB  1                                                        05200000
         AGO   .CHKOPT                                                  05250000
.SETNUC  ANOP                                                           05300000
&B4      SETB  1                                                        05350000
         AGO   .CHKOPT                                                  05400000
.SETCB   ANOP                                                           05450000
&B2      SETB  1                                                        05500000
         AGO   .CHKOPT                                                  05550000
.SETQ    ANOP                                                           05600000
&B7      SETB  1                                                        05650000
         AGO   .CHKOPT                                                  05700000
.SETSQA  ANOP                          SQA SPECIFIED             Y02705 05750000
&B17     SETB  1                       SET SQA INDICATOR         Y02705 05800000
         AGO   .CHKOPT                 RETURN                    Y02705 05850000
.SETLSQA ANOP                          LSQA SPECIFIED            Y02705 05900000
&B18     SETB  1                       SET LSQA INDICATOR        Y02705 05950000
         AGO   .CHKOPT                 RETURN                    Y02705 06000000
.SETSWA  ANOP                          SWA SPECIFIED             Y02705 06050000
&B19     SETB  1                       SET SWA INDICATOR         Y02705 06100000
         AGO   .CHKOPT                 RETURN                    Y02705 06150000
.SETDM   ANOP                                                   G33SPHW 06200000
&B20     SETB  1                       DM SPECIFIED             G33SPHW 06250000
         AGO .CHKOPT                   RETURN                   G33SPHW 06300000
.SETIO   ANOP                          IO SPECIFIED             G33SPHW 06350000
&B21     SETB  1                       SET IO INDICATOR         G33SPHW 06400000
         AGO .CHKOPT                   RETURN                   G33SPHW 06450000
.SETERR  ANOP                          ERR SPECIFIED            G33SPHW 06500000
&B22     SETB  1                       SET ERR INDICATOR        G33SPHW 06550000
         AGO .CHKOPT                   RETURN                   G33SPHW 06600000
.SETPC   ANOP                          PCDATA SPECIFIED        @G382P12 06650000
&B30     SETB  1                       SET PCDATA INDICATOR    @G382P12 06700000
         AGO .CHKOPT                   RETURN                  @G382P12 06750000
.SETSUM  ANOP                      SUMMARY DUMP REQUESTED      @G860P1Y 06800000
&B26     SETB  1                   SET SUMMARY INDICATOR       @G860P1Y 06850000
         AGO   .CHKOPT             RETURN                      @G860P1Y 06900000
.SETANUC ANOP                      VIRTUAL NUCLEUS REQUESTED   @G860P1Y 06950000
&B27     SETB  1                   SET ALLVNUC INDICATOR       @G860P1Y 07000000
         AGO   .CHKOPT             RETURN                      @G860P1Y 07050000
.SETALL  ANOP                                                           07100000
&B2      SETB  1                                                        07150000
&B3      SETB  1                                                        07200000
&B4      SETB  1                                                        07250000
&B7      SETB  1                                                        07300000
&B17     SETB  1                       SQA INDICATOR             Y02705 07350000
&B18     SETB  1                       LSQA INDICATOR            Y02705 07400000
&B19     SETB  1                       SWA  INDICATOR            Y02705 07450000
&B20     SETB  1                       DM  INDICATOR            G33SPHW 07500000
&B21     SETB  1                       IO  INDICATOR            G33SPHW 07550000
&B22     SETB  1                       ERR INDICATOR            G33SPHW 07600000
&B30     SETB  1                       PCDATA INDICATOR        @G382P12 07650000
&B26     SETB  1                       SUMMARY INDICATOR       @G860P1Y 07700000
         AGO   .CHKOPT                 RETURN                  @G860P1Y 07750000
.********************************************************************** 07800000
.*                                                                    * 07850000
.*      PARSE THE STORAGE, STRHDR, SUBPLST, DSPSTOR PARAMETERS        * 07900000
.*                                                                @L2C* 07950000
.********************************************************************** 08000000
.CHKSTR  ANOP                                                           08050000
&B5      SETB  ('&STORAGE' NE '')                                       08100000
&B16     SETB  ('&LIST' NE '')                                          08150000
&B23    SETB   ('&STRHDR' NE '')       WAS STRHDR SPECIFIED     G33SPHW 08200000
&B28     SETB  ('&SUBPLST' NE '')  WAS SUBPLST SPECIFIED       @G860P1Y 08250000
&B29     SETB  ('&DSPSTOR' NE '')  WAS DSPSTOR SPECIFIED           @L2A 08275000
&MVSE    SETB  1                 INDICATE OS/VS2 HBB2102 LEVEL @G860P1Y 08300000
&AR      SETB  1                 INDICATE OS/VS2 HBB3310 LEVEL     @L1A 08350000
         AIF   ('&B5' EQ '1' AND '&B16' EQ '1').MSG4                    08400000
&B25     SETB  ('&B5' EQ '1' OR '&B16' EQ '1')                  G33SPHW 08450000
         AIF   ('&B23' EQ '1' AND '&B25' EQ '0').MSG9           G33SPHW 08500000
         AIF   ('&B23' NE '1').SKIPT                            G33SPHW 08550000
&CTR4    SETA  N'&STRHDR                                        G33SPHW 08600000
         AIF  (&CTR4 LT 1).MSG7                                 G33SPHW 08650000
.SKIPT   ANOP                                                   G33SPHW 08700000
         AIF   ('&B5' EQ '0').CHKSTRB                                   08750000
&CTR1    SETA  N'&STORAGE                                               08800000
         AIF   (&CTR1 LT 2).MSG4                               AS100400 08850000
         AIF   ('&B23' EQ '0').NOSHA   STRHDR SPECIFIED         G33SPHW 08900000
&CTR3    SETA  N'&STRHDR*2             GET NUMBER OF HEADER*2   G33SPHW 08950000
         AIF  ( &CTR3 GT &CTR1).MSG8 TOO MANY HEADERS           G33SPHW 09000000
.NOSHA   ANOP                                                   G33SPHW 09050000
.CHKSTRA ANOP                                                           09100000
&CTR1    SETA  &CTR1-2                                                  09150000
         AIF   (&CTR1 EQ 0).CHKSTRC                            AS100400 09200000
         AIF   (&CTR1 LT 1).MSG4                          0880 AS100400 09250000
         AGO   .CHKSTRA                                                 09300000
.CHKSTRB ANOP                                                           09350000
         AIF   ('&B16' EQ '0').CHKSTRC                                  09400000
         AIF   (N'&LIST NE 1).MSG4      LIST PARSM^=1                   09450000
         AIF   ('&B23' EQ '0').CHKSTRC  STRHDR SPECIFIED        G33SPHW 09500000
         AIF   (N'&STRHDR NE 1).MSGA     LIST FORMAT            G33SPHW 09550000
.CHKSTRC ANOP                                                           09600000
         AIF   ('&B29' EQ '0').CHKSTRD    DSPSTOR SPECIFIED        @L2A 09612500
         AIF   (N'&DSPSTOR NE 1).MSGDSPL   INVALID LIST FORM       @L2A 09625000
.CHKSTRD ANOP                                                      @L2A 09637500
&B6      SETB  ('&ID' NE '')                                            09650000
.********************************************************************** 09700000
.*                                                                    * 09750000
.*      PARSE THE PDATA PARAMETERS AND SET INDICATORS                 * 09800000
.*                                                            @G860P33* 09850000
.********************************************************************** 09900000
         AIF   ('&PDATA' EQ '').SETFLAG                                 09950000
         AIF   ('&PDATA'(1,1) EQ '(').ABC8                              10000000
&B8 SETB ('&PDATA' EQ 'SAH' OR '&PDATA' EQ 'SA' OR '&PDATA' EQ 'ALL')   10050000
&B9      SETB  ('&PDATA' EQ 'SAH')                                      10100000
&B10      SETB  ('&PDATA' EQ 'REGS' OR '&PDATA' EQ 'ALL')               10150000
&B11 SETB ('&PDATA' EQ 'LPA' OR '&PDATA' EQ 'ALLPA' OR '&PDATA' EQ 'ALLX10200000
               ')                                                       10250000
&B12 SETB ('&PDATA' EQ 'JPA' OR '&PDATA' EQ 'ALLPA' OR '&PDATA' EQ 'ALLX10300000
               ')                                                       10350000
.PDATA1  ANOP                                                           10400000
&B13     SETB  ('&PDATA' EQ 'PSW' OR '&PDATA' EQ 'ALL')                 10450000
&B14     SETB  ('&PDATA' EQ 'SPLS' OR '&PDATA' EQ 'ALL')                10500000
&B15     SETB  ('&PDATA' EQ 'SUBTASKS' OR '&PDATA' EQ 'ALL')   @G860P33 10550000
&CTR1    SETA  &B8+&B9+&B10+&B11+&B12+&B13+&B14+&B15           @G860P33 10600000
         AIF   ('&CTR1' EQ '0').MSG3                                    10650000
         AGO   .SETFLAG                                                 10700000
.ABC8    ANOP                                                           10750000
&CTR1    SETA  N'&PDATA                                                 10800000
&CTR2    SETA  0                                                        10850000
.LOOPB   ANOP                                                           10900000
&CTR2    SETA  &CTR2+1                                                  10950000
&C1      SETC  '&PDATA(&CTR2)'                                          11000000
         AIF   ('&C1' EQ 'SA').SETSA                                    11050000
         AIF   ('&C1' EQ 'SAH').SETSAH                                  11100000
         AIF   ('&C1' EQ 'REGS').SETREGS                                11150000
         AIF   ('&C1' EQ 'LPA').SETLPA                      ZMXXXXX     11200000
         AIF   ('&C1' EQ 'JPA').SETJPA                                  11250000
         AIF   ('&C1' EQ 'ALLPA').SETALPA                               11300000
         AIF   ('&C1' EQ 'PSW').SETPSW                                  11350000
         AIF   ('&C1' EQ 'SPLS').SETSPLS                                11400000
         AIF   ('&C1' EQ 'SUBTASKS').SETASK SUBTASKS SPECIFIED @G860P33 11450000
         AIF   ('&C1' EQ 'ALL').SETPALL                                 11500000
         AGO   .MSG3                                                    11550000
.CHKPMOR ANOP                                                           11600000
         AIF   ('&CTR2' NE '&CTR1').LOOPB                               11650000
         AGO   .SETFLAG                                                 11700000
.SETSA    ANOP                                                          11750000
&B8      SETB  1                                                        11800000
         AGO   .CHKPMOR                                                 11850000
.SETSAH  ANOP                                                           11900000
&B8      SETB    1                                                      11950000
&B9      SETB  1                                                        12000000
         AGO    .CHKPMOR                                                12050000
.SETREGS ANOP                                                           12100000
&B10     SETB  1                                                        12150000
         AGO   .CHKPMOR                                                 12200000
.SETLPA ANOP                                                            12250000
&B11     SETB  1                                                        12300000
         AGO   .CHKPMOR                                                 12350000
.SETJPA  ANOP                                                           12400000
&B12     SETB   1                                                       12450000
         AGO   .CHKPMOR                                                 12500000
.SETALPA  ANOP                                                          12550000
&B11     SETB  1                                                        12600000
&B12     SETB  1                                                        12650000
         AGO   .CHKPMOR                                                 12700000
.SETPSW   ANOP                                                          12750000
&B13     SETB  1                                                        12800000
         AGO   .CHKPMOR                                                 12850000
.SETSPLS  ANOP                                                          12900000
&B14     SETB   1                                                       12950000
         AGO   .CHKPMOR                                                 13000000
.SETASK   ANOP                                                 @G860P33 13050000
&B15     SETB   1                  INDICATE SUBTASKS SPECIFIED @G860P33 13100000
         AGO   .CHKPMOR                                        @G860P33 13150000
.SETPALL  ANOP                                                          13200000
&B8      SETB  1                                                        13250000
&B10     SETB  1                                                        13300000
&B11     SETB  1                                                        13350000
&B12     SETB  1                                                        13400000
&B13     SETB  1                                                        13450000
&B14     SETB  1                                                        13500000
&B15     SETB  1                   INDICATE SUBTASKS SPECIFIED @G860P33 13550000
.SETFLAG  ANOP                                                          13600000
         AIF   ('&B28' EQ '1' AND '&B14' EQ '1').MSGSUBP       @G860P1Y 13650000
         AIF   ('&B28' EQ '0').NOTSUBP  WAS SUBPLST SPECIFIED  @G860P1Y 13700000
         AIF   (N'&SUBPLST NE 1).MSGNOTL  YES, MUST BE 1 ENTRY @G860P1Y 13750000
.NOTSUBP ANOP                      SUBPLST WASN'T SPECIFIED    @G860P1Y 13800000
&FLAGS1  SETA  128*&B4+64*&B17+32*&B18+16*&B19+8*&B3+4*&B2+2*&B7+1*&B20 13850000
&FLAGS2  SETA  128*&B8+64*&B9+32*&B10+16*&B11+8*&B12+4*&B13+2*&B14+1*&BX13900000
               15                                                       13950000
&FLAGS3  SETA  64*&OSVS2R2+32*&OSENVS2+16*&B0+8*&B6+4*&B1+2*&B5+2*&B16+X14000000
               1*&B23                                           G33SPHW 14050000
&FLAGS4  SETA  128*&B21+64*&B22+32*&B30+16*&B26+8*&B27 OPTIONS @G860P1Y 14100000
&FLAGS5  SETA  128*&VS2SE3+8*&B29+4*&MVSE+2*&B28+&AR OPTIONS       @L2C 14150000
         AIF   ('&DCB' EQ '' AND ('&MF' EQ '')).MSG1                    14200000
         AIF   ('&MF' EQ '').STYPE                                      14250000
         AIF   ('&MF' EQ 'L').LTYPE                                     14300000
         AIF   ('&MF'(1,3) NE '(E,').MSG5                               14350000
.********************************************************************** 14400000
.*                                                                    * 14450000
.*      PROCESS THE EXECUTE FORM                                      * 14500000
.*                                                            @G860P33* 14550000
.********************************************************************** 14600000
         AIF ('&NAME' EQ '').NONM                                       14650000
&NAME    DS    0H                                                  0918 14700000
.NONM    ANOP                                                           14750000
&C1      SETC  '&MF(2)'                                                 14800000
         AIF   ('&C1'(1,1) EQ '(').REG                                  14850000
         &LA   1,&MF(2)                                            @L1C 14900000
         AGO   .CONT0                                                   14950000
.REG     ANOP                                                           15000000
         AIF   ('&C1' EQ '(1)').CONT0                                   15050000
         LR    1,&C1             GET ADDR OF PARM LIST                  15100000
         AIF   ('&SYSASCE' EQ 'P').CONT0                           @L1A 15150000
         CPYA  1,&C1             GET ALET                          @L1A 15200000
.CONT0   ANOP                                                           15250000
         AIF   ('&DCB' EQ '' AND '&TCB' EQ '' AND                      *15300000
                '&SDATA' EQ '' AND '&PDATA' EQ '' AND                  *15350000
                '&STORAGE' EQ '' AND '&LIST' EQ '' AND                 *15400000
                '&ID' EQ '' AND '&STRHDR' EQ '' AND                    *15450000
                '&SUBPLST' EQ '' AND '&DSPSTOR' EQ '').NOVERSN     @L2C 15500000
         MVI   3(1),1               SET VERSION NUMBER             @L1A 15550000
         AIF   ('&DCB' EQ '').NODCB                                     15600000
         AIF   ('&DCB'(1,1) EQ '(').REGDCB                              15650000
         &LA   0,&DCB               GET DCB ADDRESS @L1C                15700000
         ST    0,8(0,1)             STORE INTO PARAMETER LIST    Y02705 15750000
         AIF   ('&SYSASCE' EQ 'P').NODCB                           @L1A 15800000
         STAM  0,0,28(1)            SAVE DCB ALET                  @L1A 15850000
         AGO    .NODCB                                                  15900000
.REGDCB  ANOP                                                           15950000
.*                                                                 @P2D 15987500
         ST    &DCB,8(0,1)   STORE DCB ADDRESS INTO PARM LIST   G33SPHW 16025000
         MVI   8(1),0        CLEAR HIGH ORDER BYTE OF DCB ADR      @P2A 16062500
         AIF   ('&SYSASCE' EQ 'P').NODCB                           @L1A 16100000
         STAM  &DCB(1),&DCB(1),28(1) SAVE DCB ALET                 @L1A 16150000
.NODCB   ANOP                                                           16200000
         OI    1(1),&FLAGS3        SET OPTION FLAGS              Y02705 16250000
         OI    2(1),&FLAGS5        SET OPTION FLAG 2           @G860P1Y 16300000
.CKSDATA AIF   (T'&SDATA EQ 'O').CKPDATA    IS SDATA SPECIFIED   Y02705 16350000
         MVI   4(1),&FLAGS1        SET OPTION FLAGS              Y02705 16400000
         MVI   5(1),&FLAGS4        SET OPTIONS FLAGS            G33SPHW 16450000
.CKPDATA AIF   (T'&PDATA EQ 'O').GO1        IS PDATA SPECIFIED   Y02705 16500000
         MVI   6(1),&FLAGS2        SET OPTION FLAGS              Y02705 16550000
.GO1     ANOP                                                    Y02705 16600000
         AIF   ('&B1' EQ '0').NOTCB         IS TCB SPECIFIED     Y02705 16650000
         AIF   ('&TCB'(1,1) EQ '(').REGTCB  IS TCB ADDR IN A REG Y02705 16700000
         L     0,&TCB                       ADDRESS OF TCB       Y02705 16750000
         ST    0,12(0,1)                    INTO PARAMETER LIST  YM1995 16800000
         AGO   .GO2                         GO CHECK FOR STORAGE Y02705 16850000
.NOTCB   AIF   ('&TCB' EQ '''S''').CURRTCB  CURRENT TCB REQUEST  YO2705 16900000
         AGO   .GO2                         GO CHECK FOR STORAGE Y02705 16950000
.CURRTCB NI    1(1),X'FB'                   CURRENT TCB REQUEST  Y02705 17000000
         AGO   .GO2                         GO CHECK FOR STORAGE Y02705 17050000
.REGTCB  ANOP                                                    Y02705 17100000
         ST    &TCB,12(0,1)                 TCB ADDR INTO PARAM  YM1995 17150000
.GO2     ANOP                                                    Y02705 17200000
         AIF   ('&B5' EQ '0').NOSHOT                                    17250000
&CTR1    SETA  N'&STORAGE                                               17300000
         &LA   0,52(0,1)          SET UP SNAPSHOT LIST ADDRESS     @L1C 17350000
         ST    0,16(0,1)           STORE INTO PARAMETER LIST     Y02705 17400000
         AIF   ('&SYSASCE' EQ 'P').NOAR1                           @L1A 17450000
         STAM  0,0,32(1)            SAVE SNAPSHOT ALET             @L1A 17500000
.NOAR1   AIF   ('&B23' EQ '0').NOHEAD   STRHDR SPECIFIED           @L1C 17550000
&CTR4    SETA  N'&STRHDR                NUMBER OF HEADERS       G33SPHW 17600000
&CTR8    SETA  &CTR1*4+52               DISPLACEMENT               @L1C 17650000
         &LA   0,&CTR8.(0,1)       SET UP HEADER ADDRESS        G33SPHW 17700000