         MACRO                                                          03000003
&NAME    SOM                                                            06000003
&NAME    DC    0H'0',X'4500'                                            09000003
         MEND                                                           12000003
