         MACRO                                                          03000003
&NAME    SPC                                                            06000003
&NAME    DC    XL2'EC00'                SELECT M/P BY POCKET CTR        09000003
         MEND                                                           12000003
