         MACRO                                                          03000003
&NAME    SPH                                                            06000003
&NAME    DC    XL2'EE00'                SELECT M/P BY IP CODE           09000003
         MEND                                                           12000003
