         MACRO                                                          03000003
&NAME    SPI   &MP                      SELECT M/P CODE                 06000003
         AIF   ('&MP' GE '11' AND '&MP' LE '16' OR '&MP' GE '21' AND '&X09000003
               MP' LE '26' OR '&MP' GE '31' AND '&MP' LE '36' OR '&MP' X12000003
               GE '41' AND '&MP' LE '46').SP1                           15000003
         AIF   ('&MP' GE '51' AND '&MP' LE '56' OR '&MP' GE '61' AND '&X18000003
               MP' LE '66').SP1                                         21000003
         MNOTE 12,'***  IHB356  INVALID MODULE POCKET  CODE;  MP11 IS  X24000000
               ASSUMED'                                                 25000000
&NAME    DC    0H'0',X'E9',X'11'                                        27000003
         AGO   .END                                                     30000003
.SP1     ANOP                                                           33000003
&NAME    DC    0H'0',X'E9',X'&MP'                                       36000003
.END     MEND                                                           39000003
