         MACRO                                                          00050000
&NAME    SPOST &OPERAND                                                 00100000
         AIF   ('&OPERAND' NE '').MNOTE                                 00150000
         L     1,CVTPTR(0,0)         GET ADDR OF CVT           @YM02296 00200000
         L     1,CVTSPOST-CVTMAP(,1) GET ADDR OF PURGEDQ PARM LIST      00250000
         PURGEDQ ,MF=(E,(1))       ISSUE PURGEDQ TO POST RMTR           00300000
         MEXIT                                                          00350000
.MNOTE   ANOP                                                           00400000
         IHBERMAC 1001,SPOST,&OPERAND  INVALID SPOST OPERAND            00450000
         MEXIT                                                          00500000
         MEND                                                           00550000
