         MACRO                                                          03000003
&NAME    SS    &DL,&A                   SUBTRACT INDIRECT DEC. FROM WR  04000003
         GBLA  &DISP,&VAL3890(250)                             @ZA00766 04600003
         GBLC  &LBL1,&DEF3890(250)                             @ZA00766 05200003
         LCLC  &OP,&LABEL                                      @ZA00766 06000003
         LCLA  &LD,&RL,&M                                      @ZA00766 09000003
&OP      SETC  '5D'                                                     12000003
&M       SETA  1                                               @ZA00766 13000003
         AIF   (N'&DL EQ 1).S3                                          15000003
         AIF   ('&DL(1)' LT '16').S1                                    18000003
         MNOTE 12,'***  IHB349  DISPLACEMENT NOT 0-15 DIGITS'           21000003
.S1      AIF   ('&DL(2)' NE '0' AND '&DL(2)' LT '17').S2                24000003
         MNOTE 12,'***  IHB350  LENGTH NOT 1-16 DIGITS'                 27000003
.S2      ANOP                                                           30000003
&LD      SETA  16*&DL(1)+&DL(2)-1                                       33000003
&NAME    DC    0H'0',X'&OP',AL1(&LD),AL2(&A-&LBL1+&DISP)                36000003
         AGO   .END                                                     39000003
.S3      ANOP                                                           42000003
.S7      AIF   (&M GT 250).S8                                  @ZA00766 42300003
&LABEL   SETC  '&DEF3890(&M)'                                  @ZA00766 42600003
.S5      AIF   ('&DL'   EQ '&LABEL').S6                        @ZA00766 42900003
&M       SETA  &M+1                                            @ZA00766 43200003
         AGO   .S7                                             @ZA00766 43500003
.S8      ANOP                                                  @ZA00766 43800003
         MNOTE 12,'***   IHB425 &DL NOT EQUATED IN DWF MACRO'  @ZA00766 44100003
.S6      ANOP                                                  @ZA00766 44400003
&RL      SETA  &VAL3890(&M)                                    @ZA00766 44700003
&NAME    DC    0H'0',X'&OP',AL1(&RL),AL2(&A-&LBL1+&DISP)       @ZA00766 45000003
.END     MEND                                                           48000003
