         MACRO                                                          00400000
&NAME    STABUILD &FLAG=,                                              X00800000
               &LIST=,                                                 X01200000
               &LISTNUM=,                                              X01600000
               &ADDR=,                                                 X02000000
               &CODE=,                                                 X02400000
               &RTN=,                                                  X02800000
               &NUM=,                                                  X03200000
               &TYPE=A,                                                X03250000
               &MF=                                                     03600000
         GBLA  &$PSEUDO(5)                                              04000000
         LCLA  &FNUM                                                    04400000
         LCLA  &FNUM1,&INCR                                             04800000
         LCLB  &F(8)                                                    05200000
.*                                                                      05210000
.* THIS MACRO BUILDS THE CONTROL BLOCK THAT IKJEHSIR WILL EXAMINE       05250000
.* TO DETERMINE WHAT SPECIFIC ABENDS AND/OR WHAT TYPES OF ABENDS        05300000
.* A CP WANTS TO HANDLE.                                                05350000
.*                                                                      05400000
.*  &FLAG IS THE FLAG(S) TO SET IN THE BLOCK, CAN BE ONE OR MORE        05450000
.*     OF THE FOLLOWING:                                                05550000
.*        ONE  SAYS ONLY ONE ABEND CODE TO BE HANDLED BY &RTN           05560000
.*        MUL  SAYS MULTIPLE ABENDS TO BE HANDLED BY &RTN, ALSO         05570000
.*             IMPLIES THAT &LIST EXISTS                                05580000
.*        ALL  SAYS THAT &RTN WILL HANDLE ALL ABEND CODES NOT           05590000
.*             SPECIFICALLY CALLED OUT BY A ONE OR MUL ENTRY            05592000
.*        NMSG TELLS IKJEHSIR THAT THE CP WANTS TO PUT OUT ITS          05594000
.*             OWN MESSAGE, AND THAT IKJEHSIR SHOULD NOT PUT            05594400
.*             OUT THE STANDARD MESSAGE.                                05594800
.*        USER SAYS THAT THE CODES ARE USER ABENDS                      05598000
.*        END  THIS SIGNIFIES THE END OF A TYPE OF CODE ENTRY,          05598400
.*             EITHER USER OR SYSTEM ABEND CODES                        05598800
.*  &LIST THIS IS THE ADDRESS OF THE AREA FOR A LIST OF CODES TO        05599200
.*        BE STORED IN BY THIS MACRO ON AN MF=E.  THE CODES (FROM       05599600
.*        &CODE) WILL BE STORED IN THE ORDER THAT THEY APPEAR IN        05599700
.*        THE &CODE=( ) PARAMETER                                       05599800
.*  &LISTNUM  ONLY VALID FOR AN MF=L FORM.  THIS IS THE NUMBER OF       05599900
.*        CODES THAT AN MF=E FORM WILL FILL-IN IN AN &LIST              05649900
.*  &ADDR  THIS IS THE ADDRESS OF THE MF=L TO BE FILLED IN BY THE       05659900
.*        MF=E FORM OF THE MACRO.                                       05669900
.*  &CODE  THIS IS THE CODE OR CODES THAT &RTN WILL HANDLE              05679900
.*        CANNOT BE IN A REGISTER.                                      05681900
.*  &RTN  THIS IS THE ADDRESS OF THE ROUTINE THAT WILL HANDLE THE       05689900
.*        CODE OR LIST OF CODES GIVEN IN THE &CODE= PARAMETER           05691900
.*  &NUM  IS VALID ONLY FOR MF=L.  THIS IS USED BY THE 1ST              05693900
.*        STABUILD MF=L TO DETERMINE THE NUMBER OF STABUILDS            05695900
.*        THAT WILL BE USED IN THIS ASSEMBLY.  IT SETS UP AN            05697900
.*        ADDRESS REFERENCE POINT FOR THE &LIST PARAMETERS OF           05698300
.*        OTHER STABUILD MACROS.                                        05698700
.*  &TYPE  TYPE OF MACRO EXPANSION FOR MF=E                             05698800
.*        A SAYS THAT NEW BLOCK IS BEING BUILT                          05698900
.*        C SAYS THAT OLD BLOCK IS BEING CHANGED                        05699000
.*                                                                      05749000
.*                                                                      05799000
.*PROPRIETARY V3 STATEMENT                                              05849000
.*LICENSED MATERIALS - PROPERTY OF IBM                                  05899000
.*"RESTRICTED MATERIALS OF IBM"                                         05949000
.*5695-DF1                                                              05999000
.*(C) COPYRIGHT 1992  IBM CORP.                                         06049000
.*END PROPRIETARY V3 STATEMENT                                          06099000
.*                                                                      06199000
         AIF   (T'&NUM NE 'O').NUMIT                                    06249000
         AIF   ('&MF' EQ 'L').LISTFRM                                   06400000
.*                                                                      06450000
.*   EXECUTE FORM OF MACRO                                              06500000
.*                                                                      06550000
.TRYERS  AIF   ('&TYPE' EQ 'C').TYPEC  CHANGING A BLOCK                 06600000
         AIF   (T'&FLAG EQ 'O').NOFLAG                                  06800000
         AIF   (T'&ADDR EQ 'O').NOADDR                                  07200000
         AIF   (T'&RTN EQ 'O').NORTN                                    07600000
         AIF   (N'&CODE GE 2 AND T'&LIST EQ 'O').BAD                    08000000
.LOOP0   ANOP                                                           08400000
&FNUM    SETA  0                                                        08800000
&FNUM1   SETA  N'&FLAG                                                  09200000
.LOOP1   ANOP                                                           09600000
&FNUM    SETA  &FNUM+1                                                  10000000
         AIF   ('&FLAG(&FNUM)' NE 'ONE').LOOP2                          10400000
&F(8)    SETB  1                                                        10800000
.LOOP2   AIF   ('&FLAG(&FNUM)' NE 'MUL').LOOP3                          11200000
&F(7)    SETB  1                                                        11600000
.LOOP3   AIF   ('&FLAG(&FNUM)' NE 'ALL').LOOP4                          12000000
&F(6)    SETB  1                                                        12400000
.LOOP4   AIF   ('&FLAG(&FNUM)' NE 'USER').LOOP5                         12800000
&F(5)    SETB  1                                                        13200000
.LOOP5   AIF   ('&FLAG(&FNUM)' NE 'NMSG').LOOP6                         13250000
&F(4)    SETB 1                                                         13300000
.LOOP6   ANOP                                                           13350000
.LOOP7   ANOP                                                           13400000
.LOOP8   AIF   ('&FLAG(&FNUM)' NE 'END').LOOP9                          13600000
&F(1)    SETB  1                                                        14000000
.LOOP9   ANOP                                                           14400000
&FNUM1   SETA  &FNUM1-1                                                 14800000
         AIF   (&FNUM1 NE 0).LOOP1                                      15200000
         AIF   ('&MF' EQ 'L').MFL001 BYPASS ON MF=L                     15250000
         AIF   (&F(8)+&F(7)+&F(6) EQ 0).NONE                            15600000
         AIF   (&F(8)+&F(7)+&F(6) NE 1).EXC                             16000000
         AIF   ('&TYPE' EQ 'C').MFL001  BYPASS ON TYPE=C                16050000
         AIF   (&F(7) EQ 1 AND T'&LIST EQ 'O').BAD2                     16400000
         AIF   (&F(6) NE 1 AND T'&CODE EQ 'O').NOCODE                   16800000
.MFL001  SPACE 1                                                        17200000
&FNUM SETA &F(1)*128+&F(2)*64+&F(3)*32+&F(4)*16+&F(5)*8+&F(6)*4+&F(7)*2+17600000
               +&F(8)                                                   18000000
.*                                                                      18050000
.*  SEE IF WE HAVE TO GO ON WITH MF=L PROCESSING                        18100000
.*                                                                      18150000
         AIF   ('&MF' EQ 'L').MFL                                       18400000
         AIF   ('&TYPE' EQ 'C').TYPEC1  GO ON WITH TYPE=C               18450000
         AIF   (N'&CODE GE 2).LISTER                                    18800000
         AIF   ('&ADDR'(1,1) EQ '(').REGAD                              19200000
&NAME    MVI   &ADDR,&FNUM         STORE FLAG BYTE                      19600000
         AIF   (T'&CODE EQ 'O').ZERO                                    20400000
         AIF   ('&CODE'(1,1) EQ '(').REG1                               20450000
         LA    15,X'&CODE'         ABEND CODE                           20800000
         AGO   .STH15                                                   21200000
.ZERO    LA    15,0                CODE OMITTED                         21600000
.STH15   STH   15,&ADDR+2          STORE IT                             22000000
         AGO   .REG2                                                    22400000
.REG1    STH   &CODE(1),&ADDR+2    STORE ABEND CODE                     22800000
.REG2    AIF   ('&RTN'(1,1) EQ '(').REG3                                23200000
         LA    14,&RTN             RETRY ROUTINE ADDRESS                23600000
         ST    14,&ADDR+4          STORE IT                             24000000
         AGO   .END                                                     24400000
.REG3    ST    &RTN(1),&ADDR+4     STORE ROUTINE ADDRESS                24800000
.END     SPACE 1                                                        25200000
         MEXIT                                                          25600000
.REGAD   ANOP                                                           26000000
&NAME    MVI   0(&ADDR(1)),&FNUM   STORE FLAG BYTE                      26400000
         AIF   (T'&CODE EQ 'O').ZERO1                                   27200000
         AIF   ('&CODE'(1,1) EQ '(').REGAD1                             27250000
         LA    15,X'&CODE'         ABEND CODE                           27600000
         AGO   .STH15A                                                  28000000
.ZERO1   LA    15,0                CODE OMITTED                         28400000
.STH15A  STH   15,2(&ADDR(1))      STORE IT                             28800000
         AGO   .REGAD2                                                  29200000
.REGAD1  STH   &CODE(1),2(&ADDR(1))  STORE ABEND CODE                   29600000
.REGAD2  AIF   ('&RTN'(1,1) EQ '(').REGAD3                              30000000
         LA    14,&RTN             RETRY ROUTINE ADDRESS                30400000
         ST    14,4(&ADDR(1))      STORE IT                             30800000
         AGO   .END                                                     31200000
.REGAD3  ST    &RTN(1),4(&ADDR(1))  STORE ROUTINE ADDRESS               31600000
         AGO   .END                                                     32000000
.LISTER  ANOP                                                           32400000
         AIF   ('&ADDR'(1,1) EQ '(').LADR                               32800000
         AIF   ('&LIST'(1,1) EQ '(').LLIST                              33200000
&NAME    LA    14,&LIST            LIST OF CODES                        33600000
.ST14A   ST    14,&ADDR            STORE IT                             34000000
         MVI   &ADDR,&FNUM         STORE FLAG BYTE                      34400000
         AIF   ('&RTN'(1,1) EQ '(').LRTN                                34800000
         LA    15,&RTN             RETRY ROUTINE ADDRESS                35200000
         ST    15,&ADDR+4          STORE IT                             35600000
         AGO   .CODES                                                   36000000
.LADR    AIF   ('&LIST'(1,1) EQ '(').ALIST                              36400000
&NAME    LA    14,&LIST            LIST OF CODES                        36800000
.ST14    ST    14,0(&ADDR(1))      STORE IT                             37200000
         MVI   0(&ADDR(1)),&FNUM   STORE FLAG BYTE                      37600000
         AIF   ('&RTN'(1,1) EQ '(').ARTN                                38000000
         LA    15,&RTN             RETRY ROUTINE ADDRESS                38400000
         ST    15,4(&ADDR(1))      STORE IT                             38800000
         AGO   .CODES                                                   39200000
.LRTN    ST    &RTN(1),&ADDR+4     STORE ROUTINE ADDRESS                39600000
         AGO   .CODES                                                   40000000
.ALIST   ANOP                                                           40400000
&NAME    LR    14,&LIST(1)         LIST OF CODES                        40800000
         AGO   .ST14                                                    41200000
.ARTN    ST    &RTN(1),4(&ADDR(1))  STORE ROUTINE ADDRESS               41600000
         AGO   .CODES                                                   42000000
.LLIST   ANOP                                                           42400000
&NAME    LR    14,&LIST(1)         LIST OF CODES                        42800000
         AGO   .ST14A                                                   43200000
.*                                                                      43250000
.*      LOOP TO SET UP THE CODES                                        43300000
.*                                                                      43350000
.CODES   SPACE 1                                                        43600000
&FNUM    SETA  0                   CLEAR COUNTER                        43650000
&INCR    SETA  0                   CLEAR INCREMENT                      43700000
&FNUM1   SETA  N'&CODE             GET NUMBER OF CODES                  44000000
.LOOPS   ANOP                      ANY LABEL                            44050000
&FNUM    SETA  &FNUM+1             UP POINTER BY ONE                    44100000
         LA    15,X'&CODE(&FNUM)'  ABEND CODE                           44400000
         STH   15,&INCR.(14)       STORE IN LIST                        44800000
&FNUM1   SETA  &FNUM1-1 BACK UP ONE                                     44850000
         AIF   (&FNUM1 NE 0).LOOPS1                                     45600000
         OI    &INCR.(14),X'80'    END OF LIST                          46000000
         AGO   .END                                                     46400000
.LOOPS1  ANOP                                                           46800000
&INCR    SETA  &INCR+2             UP POINTER                           46850000
         AGO   .LOOPS                                                   47200000
.*                                                                      47210000
.*       THIS IS THE TYPE=C PROCESSING                                  47250000
.*                                                                      47300000
.TYPEC   AIF   (T'&ADDR EQ 'O').NOADDR NEED AN ADDRESS                  47350000
         AIF   (N'&CODE GE 2 AND T'&LIST EQ 'O').BAD NEED A LIST        47400000
         AIF   (T'&FLAG NE 'O').LOOP0  CHECK FLAG SETTING               47450000
.TYPEC1  AIF   ('&ADDR'(1,1) EQ '(').REGTC  ADDR IN REG                 47500000
         AIF   (N'&CODE GE 2).TYPECL                                    47550000
         AIF   (T'&FLAG NE 'O' AND T'&CODE EQ 'O').TYPECF  FLAG ONLY    47600000
         AIF   (T'&CODE NE 'O' AND T'&FLAG EQ 'O').TYPECC CODE ONLY     47650000
         AIF   (T'&CODE EQ 'O' AND T'&FLAG EQ 'O').TYPECR  BOTH OMITTED 47700000
&NAME    MVI   &ADDR,&FNUM         STORE FLAG BYTE                      47750000
         LA    15,X'&CODE'         ABEND CODE                           47800000
         STH   15,&ADDR+2          STORE IT                             47850000
         AGO   .TYPECR1            CHECK ROUTINE                        47900000
.TYPECF  ANOP                                                           47950000
&NAME    MVI   &ADDR,&FNUM         STORE NEW FLAG                       48000000
         AGO   .TYPECR1                                                 48010000
.TYPECC  ANOP                                                           48020000
&NAME    LA    15,X'&CODE'         NEW ABEND CODE                       48030000
         STH   15,&ADDR+2          STORE IT                             48040000
         AGO   .TYPECR1                                                 48042000
.TYPECR  AIF   (T'&RTN EQ 'O').TYPCLST  SEE IF THER IS A LIST           48044000
         AIF   ('&RTN'(1,1) EQ '(').TYPECRR  IN A REG                   48046000
&NAME    LA    15,&RTN             NEW ROUTINE                          48048000
         ST    15,&ADDR+4          STORE IT                             48048400
         AGO   .END                                                     48048800
.TYPECRR ANOP                                                           48049200
&NAME    ST    &RTN(1),&ADDR+4     STORE NEW ROUTINE                    48049600
         AGO   .END                                                     48049700
.TYPECR1 AIF   (T'&RTN EQ 'O').END                                      48049800
         AIF   ('&RTN'(1,1) EQ '(').TYPECR2                             48049900
         LA    15,&RTN             NEW ROUTINE                          48066600
         ST    15,&ADDR+4          STORE IT                             48076600
         AGO   .END                                                     48078600
.TYPECR2 ST    &RTN(1),&ADDR+4     STORE NEW ROUTINE                    48080600
         AGO   .END                                                     48082600
.REGTC   AIF   (N'&CODE GE 2).TYPECLR                                   48083000
         AIF   (T'&FLAG NE 'O' AND T'&CODE EQ 'O').TYPCRF               48083100
         AIF   (T'&CODE NE 'O' AND T'&FLAG EQ 'O').TYPCRC               48083200
         AIF   (T'&CODE EQ 'O' AND T'&FLAG EQ 'O').TYPCRR               48088800
&NAME    MVI   0(&ADDR(1)),&FNUM   STORE FLAG BYTE                      48090800
         LA    15,X'&CODE'         NEW ABEND CODE                       48092800
         STH   15,2(&ADDR(1))      STORE IT                             48093200
         AGO   .TYPCR1                                                  48093600
.TYPCRF  ANOP                                                           48094000
&NAME    MVI   0(&ADDR(1)),&FNUM   STORE NEW FLAG BYTE                  48094100
         AGO   .TYPCR1                                                  48094200
.TYPCRC  ANOP                                                           48094300
&NAME    LA    15,X'&CODE'         NEW ABEND CODE                       48108200
         STH   15,2(&ADDR(1))      STORE IT                             48118200
         AGO   .TYPCR1                                                  48120200
.TYPCRR  AIF   (T'&RTN EQ 'O').WHY                                      48120600
         AIF   ('&RTN'(1,1) EQ '(').TYPCRRR                             48121400
&NAME    LA    15,&RTN             NEW ROUTINE                          48121800
         ST    15,4(&ADDR(1))      STORE IT                             48121900
         AGO   .END                                                     48122000
.TYPCRRR ANOP                                                           48122100
&NAME    ST    &RTN(1),4(&ADDR(1)) STORE NEW ROUTINE                    48126700
         AGO   .END                                                     48128700
.TYPCR1  AIF   (T'&RTN EQ 'O').END                                      48130700
         AIF   ('&RTN'(1,1) EQ '(').TYPCRR2                             48131100
         LA    15,&RTN             NEW ROUTINE                          48131200
         ST    15,4(&ADDR(1))      STORE IT                             48131300
         AGO   .END                                                     48131400
.TYPCRR2 ST    &RTN(1),4(&ADDR(1)) STORE NEW ROUTINE                    48136000
         AGO   .END                                                     48136100
.TYPECL  AIF   ('&LIST'(1,1) EQ '(').TYPECL1                            48138100
         AIF   (T'&FLAG EQ 'O').TYPCL2                                  48140100
&NAME    LA    14,&LIST            LIST OF CODES                        48140500
.TYPCS14 ST    14,&ADDR            STORE IT                             48140600
         MVI   &ADDR,&FNUM         STORE FLAG BYTE                      48140700
         AIF   (T'&CODE EQ 'O').END   OUT IF NO CODE                    48150700
         AGO   .CODES                                                   48152500
.TYPECL1 AIF   (T'&FLAG EQ 'O').TYPCL3                                  48162500
&NAME    LR    14,&LIST(1)         LIST OF CODES                        48164500
         AGO   .TYPCS14                                                 48168400
.TYPCL2  ANOP                                                           48170400
&NAME    LA    14,&LIST            LIST OF CODES                        48172400
.TYPCI15 IC    15,&ADDR            SAVE FLAG BYTE                       48176300
         ST    14,&ADDR            STORE LIST ADDRESS                   48176400
         STC   15,&ADDR            RESTORE FLAG BYTE                    48178400
         AIF   (T'&CODE EQ 'O').END  OUT IF NO CODE                     48178500
         AGO   .CODES                                                   48178800
.TYPCL3  ANOP                                                           48179200
&NAME    LR    14,&LIST(1)         LIST ADDRESS                         48179600
         AGO   .TYPCI15                                                 48180000
.TYPECLR AIF   ('&LIST'(1,1) EQ '(').TYPRCL                             48180100
         AIF   (T'&FLAG EQ 'O').TYPRCL1                                 48180200
&NAME    LA    14,&LIST            LIST OF CODES                        48180300
.TYPRS14 ST    14,0(&ADDR(1))      STORE IT                             48184200
         MVI   0(&ADDR(1)),&FNUM   STORE FLAG BYTE                      48184300
         AIF   (T'&CODE EQ 'O').END  OUT IF NO CODE                     48184700
         AGO   .CODES                                                   48186300
.TYPRCL  AIF   (T'&FLAG EQ 'O').TYPRCL3                                 48186700
&NAME    LR    14,&LIST(1)         LIST OF CODES                        48187100
         AGO   .TYPRS14                                                 48187500
.TYPRCL1 ANOP                                                           48187900
&NAME    LA    14,&LIST            LIST OF CODES                        48188000
.TYPRI15 IC    15,0(&ADDR(1))      SAVE FLAG BYTE                       48188100
         ST    14,0(&ADDR(1))      STORE CODE ADDRESS                   48188200
         STC   15,0(&ADDR(1))      RESTORE FLAG BYTE                    48198500
         AIF   (T'&CODE EQ 'O').END  OUT IF NO CODE                     48198600
         AGO   .CODES                                                   48198900
.TYPRCL3 ANOP                                                           48199300
&NAME    LR    14,&LIST(1)         ADDRESS OF CODES                     48199700
         AGO   .TYPRI15                                                 48199800
.TYPCLST AIF   (T'&LIST EQ 'O').WHY  NOTHING SPECIFIED                  48202000
         AGO   .TYPECL             ONWARD                               48204000
.*                                                                      48208800
.*          LIST FORM OF MACRO                                          48219100
.*                                                                      48229400
.* FIRST CHECK TO SEE IF THERE ARE ANY FLAGS                            48239700
.*                                                                      48250000
.LISTFRM AIF   (T'&FLAG NE 'O').LOOP0                                   48400000
&FNUM    SETA  0                                                        48800000
         AIF   (T'&NAME EQ 'O' AND T'&ADDR EQ 'O').BOTH                 49200000
         SPACE 1                                                        49600000
.MFL     AIF   (T'&LIST EQ 'O' AND N'&CODE GE 2).BAD                    50000000
         AIF   (T'&LISTNUM NE 'O' AND T'&LIST EQ 'O').NOLIST1           50400000
         AIF   (T'&CODE EQ 'O' AND T'&LIST NE 'O' AND T'&LISTNUM EQ 'O')50800000
               ).NOLIST2                                                51200000
         AIF   (T'&NAME EQ 'O' AND T'&ADDR EQ 'O').BOTH                 51600000
         AIF   (T'&NAME NE 'O').NOADRS  BYPASS                          51602000
         AIF   (T'&ADDR EQ 'O').NOADRS     IS THERE AN ADDRESS          51610000
         AIF   ('&ADDR'(1,1) EQ '(').BADADR     CAN'T DO THAT           51620000
.NOADRS  AIF   (T'&LIST EQ 'O').NOLIST     IS THERE A LIST              51630000
         AIF   ('&LIST'(1,1) EQ '(').BADLIST     CAN'T DO THAT EITHER   51640000
.NOLIST  ANOP                                                           51642000
         AIF   (&$PSEUDO(2) EQ 0).FIRST1   FIRST TIME                   51650000
         ORG   $STAELST+&$PSEUDO(2)*8  ORG AT NEXT SLOT                 52000000
         AGO   .FIRST2                                                  52050000
.FIRST1  ORG   $STAELST            ORG AT FIRST SLOT                    52100000
.FIRST2  ANOP                                                           52150000
&$PSEUDO(2) SETA &$PSEUDO(2)+1                                          52400000
         SPACE 1                                                        52800000
.*                                                                      52850000
.*        THE NAME PARAMETER OVERRIDES THE ADDR PARAMETER               52900000
.*                                                                      52950000
         AIF   (T'&ADDR EQ 'O').NAME                                    53200000
         AIF   (T'&NAME NE 'O').NAME                                    53600000
&ADDR    DS    0F                  NAME THIS SECTION                    54400000
         AGO   .DCNUM                                                   54800000
.NAME    ANOP                                                           55200000
&NAME    DS    0F                  NAME THIS SECTION                    55600000
.DCNUM   DC    AL1(&FNUM)          FLAG BYTE                            56000000
         AIF   (N'&CODE GE 2).LISTMFL                                   56400000
         AIF   (T'&LIST NE 'O').LISTMFL                                 56800000
         AIF   (T'&CODE EQ 'O').CODE0S                                  57200000
         DC    AL3(X'&CODE')       ABEND CODE                           57600000
         AGO   .RTN0S                                                   58000000
.CODE0S  DC    AL3(0)              ABEND CODE                           58400000
.RTN0S   AIF   (T'&RTN EQ 'O').RTN1S                                    58800000
         DC    A(&RTN)             RETRY ROUTINE ADDRESS                59200000
         AGO  .LSTEND                                                   59600000
.RTN1S   DC    A(0)                RETRY ROUTINE ADDRESS                60000000
         AGO   .LSTEND                                                  60400000
.NUMIT   SPACE 1                                                        60800000
         AIF   ('&MF' NE 'L').TRYERS                                    61200000
         AIF   (&$PSEUDO(4) EQ 1).NUMITE                                61600000
&$PSEUDO(4) SETA 1                                                      62000000
$STAELST DS    0F                  NAME THE POINTER ENTRIES             62400000
         SPACE 1                                                        62800000
         ORG   $STAELST+&NUM*8     ORG TO END OF ENTRIES                63200000
         SPACE 1                                                        63600000
$STAEEND DS    0F                  NAME THE END OF ENTRIES              64000000
.NUMITE  ANOP                                                           64400000
         AIF   (T'&FLAG NE 'O' OR T'&LIST NE 'O' OR T'&ADDR NE 'O' OR T'64800000
               '&CODE NE 'O' OR T'&RTN NE 'O' OR T'&LISTNUM NE 'O').LIST65200000
               TFRM                                                     65250000
         AGO   .LSTEND                                                  65600000
.LISTMFL DC    AL3(&LIST)          ADDRESS OF LIST                      66000000
         AIF   (T'&RTN EQ 'O').RTN2S                                    66400000
         DC    A(&RTN)             ADDRESS OF RETRY ROUTINE             66800000
         AGO   .RTN3S                                                   67200000
.RTN2S   DC    A(0)                RETRY ROUTINE ADDRESS                67600000
.RTN3S   AIF   (&$PSEUDO(3) NE 0).BYPAS1                                68000000
         SPACE 1                                                        68400000
.MLORG   ORG   $STAEEND            ORG AT BOTTOM OF ENTRIES             68800000
         SPACE 1                                                        69200000
$STAECOD DS    0F                  NAME LIST OF CODES                   69600000
         AGO   .BYPAS2                                                  70000000
.BYPAS1  SPACE 1                                                        70400000