         MACRO                                                          00050000
&NAME    STAE  &EXIT,&TYPE,&PARAM=I,&XCTL=NO,&MF=I,&PURGE=,&ASYNCH=,   *00100000
               &TCB=,&RELATED=                                          00150000
         LCLA  &LENGTH                                                  00200000
         LCLA  &FLAGS                                             20049 00250000
         LCLA  &ANDOFF                                            20049 00300000
         LCLA  &A                                                YM1995 00320000
         LCLB  &ASY                                               20049 00350000
         LCLB  &HALT                                              20049 00400000
         LCLB  &NONE                                              20049 00450000
         LCLB  &TCBON                                             20028 00500000
         LCLB  &ASYOFF                                            20049 00550000
         LCLB  &PRGOFF                                            20049 00600000
         LCLC  &GNAME                                                   00650000
         LCLC  &LNAME                                             20049 00700000
         LCLC  &EXITR                                            YM1995 00720000
&ASY     SETB  ('&ASYNCH' EQ 'YES')                               20049 00750000
&HALT    SETB  ('&PURGE' EQ 'HALT')                               20049 00800000
&NONE    SETB  ('&PURGE' EQ 'NONE')                               20049 00850000
&TCBON   SETB  ('&TCB' NE '')                                     20028 00900000
&FLAGS   SETA  128*&TCBON+4*&ASY+2*&NONE+&HALT                          00950000
         AIF   ('&TCB' EQ '').NOSTAI                              20028 01000000
&LENGTH  SETA  16                                                 20028 01050000
         AIF   ('&XCTL' EQ 'NO').NIXXCTL                                01100000
         IHBERMAC 1020,XCTL,TCB                                         01150000
         MEXIT                                                          01200000
.NIXXCTL ANOP                                                           01250000
         AIF   ('&EXIT' EQ '0').ER1                                     01300000
         AIF   ('&TYPE' EQ 'OV').ER2                                    01350000
         AIF   ('&EXIT' EQ '' AND '&MF(1)' EQ 'L').ER3                  01400000
         AGO   .STAI                                                    01450000
.ER1     ANOP                                                           01500000
         IHBERMAC 1020,EXIT/0,TCB                                       01550000
         MEXIT                                                          01600000
.ER2     ANOP                                                           01650000
         IHBERMAC 1020,TYPE/OV,TCB                                      01700000
         MEXIT                                                          01750000
.ER3     ANOP                                                           01800000
         IHBERMAC 1021,EXIT                                             01850000
         MEXIT                                                          01900000
.NOSTAI  ANOP                                                     20028 01950000
&LENGTH  SETA  12                                                 20028 02000000
.STAI    ANOP                                                     20028 02050000
         AIF   ('&ASYNCH' NE '' AND '&ASYNCH' NE 'NO' AND '&ASYNCH' NE C02100000
               'YES').ERRASY                                      20049 02150000
         AIF   ('&PURGE' NE '' AND '&PURGE' NE 'HALT' AND '&PURGE' NE  C02200000
               'NONE' AND '&PURGE' NE 'QUIESCE').PURERR           20049 02250000
         AIF   ('&MF(1)' EQ 'I').IROUT                                  02300000
         AIF   ('&MF(1)' EQ 'L').LROUT                                  02350000
         AIF   ('&MF(1)' EQ 'E').EROUTA                                 02400000
         IHBERMAC 35,,&MF(1)            INVALID MF= OPERAND             02450000
         MEXIT                                                          02500000
.*.*.*.*.*.*.*.*.*.*.*.*.*.*.*.*.*.*.*.*.*.*.*.*.*.*.*.*.*.*.*.*  20049 02550000
.*                                                                20049 02600000
.*       EXECUTE ROUTE       MF=E                                 20049 02650000
.*                                                                20049 02700000
.*.*.*.*.*.*.*.*.*.*.*.*.*.*.*.*.*.*.*.*.*.*.*.*.*.*.*.*.*.*.*.*  20049 02750000
.EROUTA  AIF   (N'&MF GT 2).EXCESSA                                     02800000
.EROUT   AIF   ('&MF(2)' NE '').EXEC                                    02850000
.NOPARM  IHBERMAC 24                    REQ'D. PARMS. MISSING           02900000
         MEXIT                                                          02950000
.EXEC    ANOP                                                           03000000
&ASYOFF  SETB  ('&ASYNCH' EQ 'NO')                                20049 03050000
&PRGOFF  SETB  ('&PURGE' NE '')                                   20049 03100000
&ANDOFF  SETA  255-(4*&ASYOFF+3*&PRGOFF)                          20049 03150000
&NAME    IHBINNRA &MF(2)                LOAD LIST ADDR IN REG 1         03200000
         AIF   ('&EXIT' EQ '').TSTPX                                    03250000
         XC    1(3,1),1(1) .            CLEAR EXIT ADDR. IN LIST        03300000
         AIF   ('&EXIT' EQ '0').TSTPX                             20049 03350000
         AIF   ('&EXIT'(1,1) EQ '(').ST1                                03400000
         IHBINNRA ,&EXIT                LOAD NEW EXIT ADDR IN REG 0     03450000
         O     0,0(1,0) .               OR EXIT ADDR. INTO LIST  YM1995 03500000
         ST    0,0(1,0)                                          YM1995 03550000
         AGO   .TSTPX                                                   03600000
.ST1     ANOP                                                     20049 03650000
&A       SETA  K'&EXIT-2                                         YM1995 03660000
&EXITR   SETC  '&EXIT'(2,&A)                                     YM1995 03670000
         LA    &EXITR,0(&EXITR.,0) .    ADDR OF EXIT ROUTINE     YM1995 03700000
         O     &EXITR,0(1,0) .          OR EXIT ADDR. INTO LIST  YM1995 03750000
         ST    &EXITR,0(1,0)                                     YM1995 03800000
.TSTPX   ANOP                                                     20049 03850000
         AIF   (&ANDOFF EQ 255).TESTOR                            20049 03900000
         NI    0(1),&ANDOFF .           TURN OFF FLAG BITS              03950000
.TESTOR  ANOP                                                     20049 04000000
         AIF   (&FLAGS EQ 0).TSTPX1                               20049 04050000
         OI    0(1),&FLAGS .            FLAGS FOR TCB,                  04100000
*                                       PURGE AND ASYNCH                04150000
.TSTPX1  ANOP                                                     20049 04200000
         AIF   ('&PARAM' EQ 'I').ETSTTCB                          20028 04250000
         AIF   ('&PARAM'(1,1) EQ '(').ST2                               04300000
         IHBINNRA ,&PARAM                                               04350000
         ST    0,4(1,0) .         MODIFY REMOTE LIST - PARM ADDR YM1995 04400000
         AGO   .ETSTTCB                                           20028 04450000
.ST2     ST    &PARAM,4(1,0) .          MODIFY LIST - PARAM ADDR YM1995 04500000
.ETSTTCB AIF   ('&TCB' EQ '').TSTOPT                              20028 04550000
         AIF   ('&TCB'(1,1) EQ '(').ST3                           20028 04600000
         IHBINNRA ,&TCB                                           20028 04650000
         ST    0,8(1,0) .                MODIFY LIST - TCB ADDR. YM1995 04700000
         AGO   .TSTOPT                                            20028 04750000
.ST3     ST    &TCB,8(1,0)     .         MODIFY LIST - TCB ADDR  YM1995 04800000
.TSTOPT  AIF   ('&EXIT' EQ '0').CANCEL                                  04850000
         AGO   .OPTTST                                                  04900000
.EXCESSA MNOTE *,'***     EXCESS PARAMETERS W/MF=E IGNORED'             04950000
         AGO   .EROUT                                                   05000000
.*.*.*.*.*.*.*.*.*.*.*.*.*.*.*.*.*.*.*.*.*.*.*.*.*.*.*.*.*.*.*.*  20049 05050000
.*                                                                20049 05100000
.*       LIST ROUTE          MF=L                                 20049 05150000
.*                                                                20049 05200000
.*.*.*.*.*.*.*.*.*.*.*.*.*.*.*.*.*.*.*.*.*.*.*.*.*.*.*.*.*.*.*.*  20049 05250000
.LROUT   AIF   (N'&MF GT 1).EXCESS                                20028 05300000
.LROUT1  ANOP                                                     20049 05350000
         DS    0F                                                       05400000
&NAME    DC    AL1(&FLAGS) .        FLAGS FOR TCB,                      05450000
*                                   PURGE AND ASYNCH                    05500000
         AIF   ('&EXIT' NE '').LREGA                              20049 05550000
         DC    AL3(0) .             EXIT ADDR. NOT SPECIFIED            05600000
         AGO   .LREGB                                                   05650000
.LREGA   AIF   ('&EXIT'(1,1) EQ '(').LISTERR                            05700000
         DC    AL3(&EXIT) .         STAE EXIT ROUTINE ADDR.             05750000
.LREGB   AIF   ('&PARAM' NE 'I').LREGC                                  05800000
         DC    A(0) .                   PARM. LIST ADDR. NOT SPECIFIED  05850000
         AGO   .LREGD                                             20028 05900000
.LREGC   AIF   ('&PARAM'(1,1) EQ '(').LISTERR                           05950000
         DC    A(&PARAM) .              STAE EXIT PARM. LIST ADDR.      06000000
.LREGD   AIF   ('&TCB' EQ '').LREGE                               20028 06050000
         AIF   ('&TCB'(1,1) EQ '(').LISTERR                       20028 06100000
         DC    A(&TCB)       . TCB ADDRESS                              06150000
         MEXIT                                                          06200000
.LREGE   DC    A(0) .                  TCB NOT SPECIFIED                06250000
         MEXIT                                                          06300000
.EXCESS  MNOTE *,'***     EXCESS PARAMETERS W/MF=L IGNORED'             06350000
         AGO   .LROUT1                                                  06400000
.*.*.*.*.*.*.*.*.*.*.*.*.*.*.*.*.*.*.*.*.*.*.*.*.*.*.*.*.*.*.*.*  20049 06450000
.*                                                                20049 06500000
.*       REGULAR ROUTE       MF=I                                 20049 06550000
.*                                                                20049 06600000
.*.*.*.*.*.*.*.*.*.*.*.*.*.*.*.*.*.*.*.*.*.*.*.*.*.*.*.*.*.*.*.*  20049 06650000
.IROUT   AIF   ('&EXIT' EQ '').NOPARM                                   06700000
         AIF   ('&EXIT' NE '0').STDA                                    06750000
&NAME    DS    0H                                                       06800000
.CANCEL  LA    0,4(0,0)  .              INDICATE CANCEL OPTION   YM1995 06850000
         AGO   .SVC1                                                    06900000
.STDA    CNOP  0,4 .                    ESTAB. FULL WD. BOUND. ALIGN.   06950000
&LNAME   SETC  'IHB'.'&SYSNDX'                                    20049 07000000
&NAME    BAL   1,*+&LENGTH . PUT LIST ADDR IN REG1 AND BR AROUND        07050000
&LNAME   EQU   *                                                        07100000
         AIF   ('&EXIT'(1,1) EQ '(').EREG1                              07150000
         DC    AL1(&FLAGS) .           FLAGS FOR TCB,                   07200000
*                                      PURGE AND ASYNCH                 07250000
         DC    AL3(&EXIT)   .            STAE EXIT ROUTINE ADDR.        07300000
         AGO   .STDB                                                    07350000
.EREG1   DC    A(0) .                  SPACE FOR STAE EXIT RTN ADDRESS  07400000
.STDB    ANOP                                                     20049 07450000
         AIF   ('&PARAM' EQ 'I' OR '&PARAM'(1,1) EQ '(').STDC1          07500000
         DC    A(&PARAM) .              STAE EXIT PARM. LIST ADDR.      07550000
         AGO   .TCBTST                                            20028 07600000
.STDC1   DC    A(0) .                  SPACE FOR PARM LIST ADDR         07650000
.TCBTST  AIF   ('&TCB' EQ '').TSTSW                               20028 07700000
         AIF   ('&TCB'(1,1) EQ '(').TCBREG                        20028 07750000
         DC    A(&TCB)      .                    TCB ADDR               07800000
         AGO   .TSTSW                                             20028 07850000
.TCBREG  DC    A(0) .                  SPACE FOR TCB ADDR               07900000
         ST    &TCB,&LNAME+8       .  PUT TCB ADDR IN LIST              07950000
.TSTSW   ANOP                                                     20049 08000000
         AIF   ('&EXIT'(1,1) NE '(').CHKPARM                      20049 08050000
         ST    &EXIT,&LNAME .          PUT EXIT ADDR. IN LIST           08100000
         MVI   &LNAME,&FLAGS .         PUT IN FLAGS FOR TCB,            08150000
*                                      PURGE AND ASYNCH                 08200000
.CHKPARM ANOP                                                     20049 08250000
         AIF   ('&PARAM'(1,1) NE '(').OPTTST                      20028 08300000
         ST    &PARAM,&LNAME+4 . PUT PARAM ADDR. IN LIST                08350000
.*.*.*.*.*.*.*.*.*.*.*.*.*.*.*.*.*.*.*.*.*.*.*.*.*.*.*.*.*.*.*.*  20049 08400000
.*                                                                20049 08450000
.*       COMMON TO E ROUTE AND I ROUTE                            20049 08500000
.*                                                                20049 08550000
.*.*.*.*.*.*.*.*.*.*.*.*.*.*.*.*.*.*.*.*.*.*.*.*.*.*.*.*.*.*.*.*  20049 08600000
.OPTTST  AIF   (('&TCB' NE '') AND ('&TYPE' EQ 'OV')).BADOPT      20028 08650000
         AIF   (('&TYPE' EQ '') OR ('&TYPE' EQ 'CT')).CREATE      20028 08700000
         AIF   ('&TYPE' EQ 'OV').OVRLAY                                 08750000
.BADOPT  IHBERMAC  49,,&TYPE           INVALID OPTION-STD. FORM   20028 08800000
         MEXIT                                                          08850000
.CREATE  ANOP                                                     20049 08900000
         SR    0,0 .                   INDICATE CREATE OPTION           08950000
         AGO   .SVC                                                     09000000
.OVRLAY  LA    0,8(0,0)  .             INDICATE OVERLAY OPTION   YM1995 09050000
.SVC     AIF   ('&XCTL' EQ 'NO').NOXCTL                                 09100000
         AIF   ('&XCTL' NE 'YES').BADXCTL                               09150000
         AIF   ('&TCB' NE '').SVC1                               YM2149 09160000
&GNAME   SETC  'IHB'.'&SYSNDX'.'A'                                20049 09200000
         CNOP  0,4 .                   FORCE FULL WORD ALIGNMENT        09250000
         O     1,&GNAME .              XCTL=YES - MAKE REG 1 NEGATIVE   09300000
         B     *+8 .                   BRANCH AROUND CONSTANT           09350000
&GNAME   DC    X'80000000' .           MASK TO SET REG 1 NEGATIVE       09400000
.SVC1    SVC   60 .                    ISSUE STAE SVC                   09450000
         MEXIT                                                          09500000
.NOXCTL  ANOP                                                     20049 09550000
         AIF   ('&MF(1)' EQ 'E' AND 'MF(2)' NE '1').SVC1          20049 09600000
         LA    1,0(1,0) .               MAKE REG1 POS.  XCTL=NO  YM1995 09650000
         AGO   .SVC1                                                    09700000
.BADXCTL MNOTE 8,'***     XCTL=&XCTL - PARAMETER INVALID'               09750000
         MEXIT                                                          09800000
.LISTERR IHBERMAC 69                    REG NOTE W/MF=L - INVALID       09850000
         MEXIT                                                    20049 09900000
.ERRASY  ANOP                                                     20049 09950000
         IHBERMAC  54,,&ASYNCH                                    20049 10000000
         MEXIT                                                    20049 10050000
.PURERR  ANOP                                                     20049 10100000
         IHBERMAC  54,,&PURGE                                     20049 10150000
         MEND                                                     20049 10200000
