*/*                                                                     00050000
         MACRO                                                          00100000
&NAME    STATUS &TYPE,&CLASS,&SCOPE,&MASK,&XPLICIT,&TCB=,&ASID=,       X00150000
               &RELATED=,&TASK=YES,&INLINE=NO                  @G50DPXO 00200000
.* START OF SPECIFICATIONS ******************************************** 00250000
.*                                                                      00700000
.*01* MACRO NAME = STATUS                                               00702500
.*                                                                      00705000
.*01* DESCRIPTIVE NAME = STATUS macro                                   00707500
.*                                                                      00710000
.*01* PROPRIETARY STATEMENT =                                           00712500
.*                                                                      00715000
.*       LICENSED MATERIALS - PROPERTY OF IBM                           00717500
.*       THIS MACRO IS "RESTRICTED MATERIALS OF IBM"                    00720000
.*       5645-001 (C) COPYRIGHT IBM CORP 1977, 1997                     00723700
.*                                                                      00727500
.*01* STATUS = HBB6603                                                  00728800
.*                                                                      00730200
.*01* EXTERNAL CLASSIFICATION:                                          00730400
.*02* GUPI: BASE                                                        00730600
.*02* NONE: FIELDS SD ND SYSTEM STEP MASK E SYNCH RTCD TASK INLINE      00730800
.*01* END OF EXTERNAL CLASSIFICATION:                                   00731000
.*                                                                      00731200
.*01* Note:                                                             00731400
.*    All the parameter names that follow "NONE: FIELDS" above are      00731600
.*    IBM internal use only.                                            00731800
.*                                                                      00732500
.*01* FUNCTION = Provide the interface to the STATUS service routines   00735000
.*        IEAVSETS, IEAVPMCS, and IEAVPMCR.                             00737500
.*                                                                      00740000
.*01* OPERATION = Change the dispatchability status of units of work.   00742500
.*                                                                      00745000
.*01* SYNTAX = Two formats - START/STOP and SET/RESET:                  00747500
.*                                                                      00750000
.*     name    STATUS        {label "name" must start in column 1}      00752500
.*                                                                      00755000
.*              START                                                   00757500
.*              STOP                                                    00760000
.*                                                                      00762500
.*                ,TCB=TCB addr                                         00765000
.*                ,SRB                                                  00767500
.*                ,SRB,ASID=ASID addr                                   00770000
.*                ,SRB,TASK=YES                {default: TASK=YES}      00772500
.*                ,SRB,TASK=NO                                          00775000
.*                ,SRB,TASK=YES,ASID=ASID addr                          00777500
.*                ,SRB,TASK=NO,ASID=ASID addr                           00780000
.*                                                                      00782500
.*                ,RELATED=value                                        00785000
.*                                                                      00787500
.*     Notes: 1) ASID may only be specified with START.                 00790000
.*            2) TCB and ASID addresses are of RX type, or are          00792500
.*               contained in registers (2) - (12).  TCB address can    00795000
.*               be zero.                                               00797500
.*                                                                      00800000
.*                                                                      00802500
.*     name    STATUS        {label "name" must start in column 1}      00805000
.*                                                                      00807500
.*              SET                                                     00810000
.*              RESET                                                   00812500
.*                                                                      00815000
.*                ,MC                                                   00817500
.*                ,MC,STEP                                              00820000
.*                ,MC,PROCESS                                           00822500
.*                ,ND                                                   00825000
.*                ,SD                                                   00827500
.*                                                                      00830000
.*                  ,SYSTEM                                             00832500
.*                  ,STEP           {default}                           00835000
.*                  ,STEP,mask                                          00837500
.*                  ,TCB addr,mask                                      00840000
.*                  ,,mask                                              00842500
.*                                                                      00845000
.*               E                                                      00847500
.*               ASID=ASID addr                                         00850000
.*               RELATED=value                                          00852500
.*                                                                      00855000
.*     Notes: 1) If MC / MC,STEP / MC,PROCESS is specified, no          00857500
.*               other parameters besides SET/RESET are allowed.        00860000
.*            2) Only authorized callers in key 0 supervisor state      00862500
.*               can use the Process Must Complete option               00865000
.*               "MC,PROCESS".                                          00867500
.*            3) For SET, the ASID parameter can only be specified      00870000
.*               with "TCB addr,mask".                                  00872500
.*            4) For RESET, the ASID parameter may not be specified     00875000
.*                with SYSTEM.                                          00877500
.*            5) The "E" keyword is only valid with "TCB addr,mask".    00880000
.*            6) TCB and ASID addresses are of RX type, or are          00882500
.*               contained in registers (2) - (12).                     00885000
.*                                                                      00887500
.*01* COMPONENT = SC1CL (Task Management)                               00890000
.*                                                                      00892500
.*01* CHANGE ACTIVITY =                                                 00895000
.*                                                                      00897500
.*       OZ37762 -- CHANGE INLINE EXPANSION TO DO CHECK OF     @ZA37762 00900000
.*                  ASCBSSRB HALF WORD FOR ZERO INSTEAD OF     @ZA37762 00950000
.*                  FULLWORD WHICH INCLUDES ASCBSMCT & PER BIT @ZA37762 01000000
.*       G860PXZ -- DELETE THE SYNCH OPTION OF STATUS STOP     @G860PXZ 01025000
.*  $L1=DBFMC    HBB4430  901109  PD16IG:  Function Must Complete       01027000
.*                                         support                      01029000
.*  $P1=PH32022  HBB4420  910115  PD16AG:  Set retcode 256 on inline    01031200
.*                                         change of SRB suspend        01037400
.*                                         count.                       01043600
.*  $D1=DCR0047  HBB4430  920529  PD16CU:  Change FMC to PMC            01049200
.*                                                                      01054800
.*01* DISTRIBUTION LIBRARY = AMACLIB                                    01066000
.*                                                                      01077200
.* END OF SPECIFICATIONS ********************************************** 01088400
         LCLB  &A(32)                   MASK VALUES (0 OR 1)            01100000
         LCLA  &B                       CODE VALUE (1-12)               01150000
         LCLB  &C                       SET/RESET VALUE (0 OR 1)        01200000
         LCLB  &D                       TCBLOC STORAGE INDICATOR        01250000
         LCLA  &E                       MASK CHARACTER SUBSCRIPT        01300000
         LCLA  &F                       MASK SUB-OPERAND SUBSCRIPT      01350000
         LCLA  &G                       MASK VALUE SUBSCRIPT            01400000
         LCLA  &H                       SCOPE CHARACTER SUBSCRIPT       01450000
         LCLB  &I                       TCBLOC REGISTER INDICATOR       01500000
         LCLC  &J                       TCBLOC REGISTER NAME            01550000
         LCLC  &K                       APOSTROPHE DELIMITER            01600000
         LCLC  &L                                                       01650000
.*                                                                      01700000
.* TYPE OPERAND SCAN.                                                   01750000
.*                                                                      01800000
         AIF   (T'&TYPE EQ 'O').ERROR10                                 01850000
         AIF   (T'&ASID EQ 'O').CONT0                                   01900000
         AIF   ('&TYPE' NE 'START' AND '&TYPE' NE 'STOP').CONT          01950000
         AIF   ('&TCB' NE '').ERROR8                                    02000000
         AIF   ('&CLASS' EQ '').ERROR8                                  02050000
         AIF   ('&TYPE' EQ 'STOP').ERROR8                               02100000
.CONT    ANOP                                                           02150000
         AIF   ('&CLASS' EQ 'MC').ERROR3                                02200000
         AIF   ('&SCOPE' EQ 'SYSTEM').ERROR6                            02250000
         AIF   ('&TYPE' EQ 'SET' AND '&SCOPE' EQ 'STEP').ERROR8         02300000
         AIF   ('&TYPE' EQ 'SET' AND '&SCOPE' EQ '').ERROR8             02350000
.CONT0   ANOP                                                           02400000
         AIF   ('&TYPE' EQ 'START' OR '&TYPE' EQ 'STOP').SSCK   20021   02450000
&C       SETB  ('&TYPE' EQ 'RESET')                                     02500000
         AIF   (NOT &C AND '&TYPE' NE 'SET').ERROR1                     02550000
         AIF   (T'&TCB NE 'O').ERROR8                                   02600000
.CONT1   ANOP                                                           02650000
.*                                                                      02700000
.* CLASS OPERAND SCAN.                                                  02750000
.*                                                                      02800000
         AIF   (T'&CLASS EQ 'O').ERROR11                                02850000
         AIF   ('&CLASS' EQ 'MC').SCOPEMC                               02900000
         AIF   ('&CLASS' EQ 'SD').SCOPESD                               02950000
         AIF   ('&CLASS' EQ 'ND').SCOPEND                               03000000
         AGO   .ERROR2                                                  03050000
.*                                                                      03100000
.* SCOPE OPERAND SCAN FOR CLASS=MC.                                     03150000
.*                                                                      03200000
.SCOPEMC AIF   (T'&MASK NE 'O' OR T'&XPLICIT NE 'O').ERROR3             03250000
         AIF   (T'&TCB  NE 'O').ERROR8                             @L1A 03275000
         AIF   (T'&SCOPE EQ 'O').CONT2                                  03300000
         AIF   ('&SCOPE' EQ 'STEP').CONT2                               03350000
         AIF   ('&SCOPE' EQ 'PROCESS').CONT124                     @D1C 03375000
         AGO   .ERROR6                                                  03400000
.CONT2   ANOP                                                           03450000
&B       SETA  1                                                        03500000
         AGO   .CONT9                                                   03550000
.*                                                                      03600000
.* SCOPE OPERAND SCAN FOR CLASS=SD.                                     03650000
.*                                                                      03700000
.SCOPESD AIF   (T'&SCOPE EQ 'O').CONT35                                 03750000
         AIF   ('&SCOPE' EQ 'STEP').CONT35                              03800000
         AIF   ('&SCOPE' EQ 'SYSTEM').CONT36                            03850000
&H       SETA  K'&SCOPE                                                 03900000
         AIF   ('&SCOPE'(1,1) EQ '''').CONT3                            03950000
         AIF   ('&SCOPE'(1,1) EQ '(').CONT31                            04000000
         AIF   (K'&SCOPE GT 8).ERROR6                                   04050000
&D       SETB  1                                                        04100000
         AGO   .CONT32                                                  04150000
.CONT3   ANOP                                                           04200000
&K       SETC  ''''                                                     04250000
         AGO   .ERROR6                                                  04300000
.CONT31  ANOP                                                           04350000
         AIF   (K'&SCOPE GT 10).ERROR6                                  04400000
         AIF   (K'&SCOPE LT 3).ERROR6                                   04450000
&H       SETA  &H-2                                                     04500000
&J       SETC  '&SCOPE'(2,&H)                                           04550000
&I       SETB  1                                                        04600000
.CONT32  AIF   (T'&XPLICIT EQ 'O').CONT33                               04650000
         AIF   ('&XPLICIT' NE 'E').ERROR13                              04700000
&B       SETA  11                                                       04750000
         AGO   .CONT38                                                  04800000
.CONT33  ANOP                                                           04850000
&B       SETA  10                                                       04900000
         AGO   .CONT38                                                  04950000
.CONT35  ANOP                                                           05000000
&B       SETA  8                                                        05050000
         AGO   .CONT37                                                  05100000
.CONT36  ANOP                                                           05150000
&B       SETA  9                                                        05200000
.CONT37  AIF   (T'&XPLICIT NE 'O').ERROR3                               05250000
.*                                                                      05300000
.* MASK OPERAND SCAN FOR CLASS=SD.                                      05350000
.*                                                                      05400000
.CONT38  ANOP                                                           05450000
         AIF   (T'&MASK EQ 'O').CONT9                                   05500000
         AIF   ('&MASK'(1,1) NE '(').ERROR9                             05550000
         AIF   (K'&MASK GT 88).ERROR9                                   05600000
&E       SETA  K'&MASK                                                  05650000
         AIF   ('&MASK'(&E,1) NE ')').ERROR9                            05700000
         AIF   (K'&MASK LT 3).ERROR9                                    05750000
         AIF   (N'&MASK GT 32).ERROR9                                   05800000
.CONT39  ANOP                                                           05850000
         AIF   (&F EQ N'&MASK).CONT9                                    05900000
&F       SETA  &F+1                                                     05950000
         AIF   ('&MASK(&F)' LT '1').ERROR9                              06000000
         AIF   ('&MASK(&F)' GT '32').ERROR9                             06050000
&G       SETA  &MASK(&F)                                                06100000
         AIF   (&A(&G)).ERROR9                                          06150000
&A(&G)   SETB  1                                                        06200000
         AGO   .CONT39                                                  06250000
.*                                                                      06300000
.* SCOPE OPERAND SCAN FOR CLASS=ND.                                     06350000
.*                                                                      06400000
.SCOPEND AIF   (T'&SCOPE EQ 'O').CONT5                                  06450000
         AIF   ('&SCOPE' EQ 'STEP').CONT5                               06500000
         AIF   ('&SCOPE' EQ 'SYSTEM').CONT6                             06550000
&H       SETA  K'&SCOPE                                                 06600000
         AIF   ('&SCOPE'(1,1) EQ '''').CONT4                            06650000
         AIF   ('&SCOPE'(1,1) EQ '(').CONT41                            06700000
         AIF   (K'&SCOPE GT 8).ERROR6                                   06750000
&D       SETB  1                                                        06800000
         AGO   .CONT42                                                  06850000
.CONT4   ANOP                                                           06900000
&K       SETC  ''''                                                     06950000
         AGO   .ERROR6                                                  07000000
.CONT41  ANOP                                                           07050000
         AIF   (K'&SCOPE GT 10).ERROR6                                  07100000
         AIF   (K'&SCOPE LT 3).ERROR6                                   07150000
&H       SETA  &H-2                                                     07200000
&J       SETC  '&SCOPE'(2,&H)                                           07250000
&I       SETB  1                                                        07300000
.CONT42  ANOP                                                           07350000
         AIF   (T'&XPLICIT EQ 'O').CONT43                               07400000
         AIF   ('&XPLICIT' NE 'E').ERROR13                              07450000
&B       SETA  12                                                       07500000
         AGO   .CONT7                                                   07550000
.CONT43  ANOP                                                           07600000
&B       SETA  5                                                        07650000
         AGO   .CONT7                                                   07700000
.CONT5   ANOP                                                           07750000
&B       SETA  3                                                        07800000
         AGO   .CONT65                                                  07850000
.CONT6   ANOP                                                           07900000
&B       SETA  4                                                        07950000
.CONT65  AIF   (T'&XPLICIT NE 'O').ERROR3                               08000000
.*                                                                      08050000
.* MASK OPERAND SCAN FOR CLASS=ND.                                      08100000
.*                                                                      08150000
.CONT7   ANOP                                                           08200000
         AIF   (T'&MASK EQ 'O').CONT9                                   08250000
         AIF   ('&MASK'(1,1) NE '(').ERROR9                             08300000
         AIF   (K'&MASK GT 40).ERROR9                                   08350000
&E       SETA  K'&MASK                                                  08400000
         AIF   ('&MASK'(&E,1) NE ')').ERROR9                            08450000
         AIF   (K'&MASK LT 3).ERROR9                                    08500000
         AIF   (N'&MASK GT 16).ERROR9                                   08550000
.CONT8   ANOP                                                           08600000
         AIF   (&F EQ N'&MASK).CONT9                                    08650000
&F       SETA  &F+1                                                     08700000
         AIF   ('&MASK(&F)' LT '1').ERROR9                              08750000
         AIF   ('&MASK(&F)' GT '16').ERROR9                             08800000
&G       SETA  &MASK(&F)                                                08850000
         AIF   (&A(&G)).ERROR9                                          08900000
&A(&G)   SETB  1                                                        08950000
         AGO   .CONT8                                                   09000000
.*                                                                      09050000
.* CODE GENERATION SEQUENCE.                                            09100000
.*                                                                      09150000
.CONT9   ANOP                                                           09200000
         CNOP  0,4                                                      09250000
         AIF   ('&CLASS' NE 'SD').CONT95                                09300000
&NAME    B     *+16              .BRANCH AROUND CONSTANT                09350000
         DC    BL2'&A(1)&A(2)&A(3)&A(4)&A(5)&A(6)&A(7)&A(8)&A(9)&A(10)&X09400000
               A(11)&A(12)&A(13)&A(14)&A(15)&A(16)'     .SECONDARY      09450000
         DC    BL2'&A(17)&A(18)&A(19)&A(20)&A(21)&A(22)&A(23)&A(24)&A(2X09500000
               5)&A(26)&A(27)&A(28)&A(29)&A(30)&A(31)&A(32)'   .MASK    09550000
         DC    A(&B)              .ACTION CODE                          09600000
         DC    BL1'&C.0000000'    .SET/RESET INDICATOR                  09650000
         DC    AL3(0)             .CONSTANT OF ZERO                     09700000
         AIF   (NOT &D AND NOT &I).CONT92                               09750000
         LM    15,0,*-12          .LOAD MASK AND CODE                   09800000
         AIF   (&D).CONT101                                             09850000
         AGO   .CONT111                                                 09900000
.CONT92  ANOP                                                           09950000
         LM    15,1,*-12          .LOAD MASK, CODE AND SET/RESET        10000000
         AGO   .CONT12                                                  10050000
.CONT95  ANOP                                                           10100000
&NAME    B     *+12               .BRANCH AROUND CONSTANT               10150000
         DC    BL2'&A(1)&A(2)&A(3)&A(4)&A(5)&A(6)&A(7)&A(8)&A(9)&A(10)&X10200000
               A(11)&A(12)&A(13)&A(14)&A(15)&A(16)'    .PRIMARY MASK    10250000
         DC    AL2(&B)            .ACTION CODE                          10300000
         DC    BL1'&C.0000000'    .SET/RESET INDICATOR                  10350000
         DC    AL3(0)             .CONSTANT OF ZERO                     10400000
         AIF   (&D).CONT10                                              10450000
         AIF   (&I).CONT11                                              10500000
         LM    0,1,*-8            .LOAD MASK, CODE AND SET/RESET        10550000
         AGO   .CONT12                                                  10600000
.CONT10  ANOP                                                           10650000
         L     0,*-8              .LOAD MASK AND CODE                   10700000
.CONT101 ANOP                                                           10750000
         L     1,&SCOPE           .LOAD TCB ADDRESS                     10800000
         O     1,*-12             .'OR IN' SET/RESET INDICATOR          10850000
         AGO   .CONT12                                                  10900000
.CONT11  ANOP                                                           10950000
         L     0,*-8              .LOAD MASK AND CODE                   11000000
.CONT111 ANOP                                                           11050000
         LR    1,&J               .LOAD TCB ADDRESS                     11100000
         O     1,*-10             .'OR IN' SET/RESET INDICATOR          11150000
         AGO   .CONT12                                                  11200000
.*                                                                      11250000
.*  STOP/START CODE GENERATION                                          11300000
.*                                                                      11350000
.SSCK     ANOP                                                    20021 11400000
         AIF   ('&CLASS' NE '' AND '&TCB' NE '').ERROR12                11450000
         AIF   ('&CLASS' EQ 'SRB').SRB                                  11500000
         AIF   ('&CLASS' EQ 'SYNCH').ERROR12                   @G860PXZ 11550000
         AIF   ('&CLASS' NE '' OR '&SCOPE' NE '').ERROR12               11600000
         AIF   ('&MASK' NE '' OR T'&XPLICIT NE 'O').ERROR12             11650000
         AIF   ('&TYPE' EQ 'STOP').STPCK                          20021 11700000
.STRTCK  ANOP                                                           11750000
&NAME    LA    0,7(0,0)           .LOAD START CODE               YM1995 11800000
         AIF   ('&TCB' EQ '').ALTSK                               20021 11850000
         AIF   ('&TCB'(1,1) EQ '(').TCBREG                        20021 11900000
         L     1,&TCB(1)          .LOAD TCB ADDRESS                     11950000
         AGO   .CONT12                                            20021 12000000
.TCBREG  LR    1,&TCB(1)          .LOAD TCB ADDRESS                     12050000
         AGO   .CONT12                                            20021 12100000
.STPCK   ANOP                                                           12150000
&NAME    LA    0,6(0,0)           .LOAD STOP CODE                YM1995 12200000
         AIF   ('&TCB' EQ '').ALTSK                               20021 12250000
         AIF   ('&TCB'(1,1) EQ '(').TCBREG                        20021 12300000
         L     1,&TCB(1)          .LOAD TCB ADDRESS                     12350000
         AGO   .CONT12                                            20021 12400000
.SRB     AIF   ('&INLINE' EQ 'YES').SRBI                       @G50DPXO 12450000
         AIF   ('&INLINE' NE 'NO').ERROR15                    @G50DPXO  12500000
         AGO   .SRBCK                                          @G50DPXO 12550000
.SRBI    ANOP                                                  @G50DPXO 12600000
         L     15,PSAAOLD-PSA(0)     GET CURRENT ASCB ADDRESS  @G50DPXO 12650000
         L     0,ASCBSSRB-ASCB(,15)  STATUS STOP SRBS COUNT             12700000
         AIF   ('&TYPE' NE 'STOP').SRBSTRT                     @G50DPXO 12750000
         LR    1,0                   COPY TO WORK REG          @ZA37762 12800000
         SRA   1,16                  IS STOP COUNT 0 ?         @ZA37762 12850000
         BZ    ST17&SYSNDX+4         .YES, MUST CALL STATUS    @G50DPXO 12900000
         LR    1,0                   ELSE CAN SIMPLY UPDATE CTR@G50DPXO 12950000
         AL    1,ST17&SYSNDX         .BUMP STOP CTR BY 1       @G50DPXO 13000000
         AGO   .SRBCOMM                                        @G50DPXO 13050000
.SRBSTRT ANOP                                                  @G50DPXO 13100000
         LR    1,0                   COPY STOP COUNT           @G50DPXO 13150000
         SRA   1,17                  IS STOP COUNT > 1 ?       @G50DPXO 13200000
         BZ    ST17&SYSNDX+4         .NO, MUST CALL STATUS     @G50DPXO 13250000
         LR    1,0                   REFRESH STATUS STOP COUNT @G50DPXO 13300000
         SL    1,ST17&SYSNDX         .DECREMENT COUNT BY 1     @G50DPXO 13350000
.SRBCOMM ANOP                                                  @G50DPXO 13400000
         CS    0,1,ASCBSSRB-ASCB(15) UPDATE CTR BY CS          @G50DPXO 13450000
         AIF   ('&TYPE' NE 'STOP').STRET                       @G50DPXO 13500000
         BNZ   *-20                  IF CS FAILED, TRY AGAIN   @ZA37762 13550000
         AGO   .RETCDE                                         @G50DPXO 13600000
.STRET   ANOP                                                  @G50DPXO 13650000
         BNZ   *-20                  IF CS FAILED, TRY AGAIN   @G50DPXO 13700000
.RETCDE  ANOP                                                  @G50DPXO 13750000
         LA    15,256                SET RETCODE TO INDICATE INLINE    -13783300
                                     EVENT                         @P1C 13816600
         AIF   ('&ASID' EQ '').SRBC1                           @G50DPXO 13850000
         B     ST17&SYSNDX+16        .RETURN TO ISSUER         @G50DPXO 13900000
         AGO   .SRBC2                                          @G50DPXO 13950000
.SRBC1   ANOP                                                  @G50DPXO 14000000
         B     ST17&SYSNDX+12        .RETURN TO ISSUER         @G50DPXO 14050000