          MACRO                                                         00500020
&NAME STAX     &EXADDR,&OBUF=,&IBUF=,&USADDR=,&REPLACE=,&DEFER=,&MF=I, *00524100
               &IGNORE=,&CLSTATTN=,&TOPLEVL=,&LINKAGE=SVC          @L1A 00548200
.*** START OF SPECIFICATIONS ****************************************** 00572300
.*                                                                      00596400
.*01* MACRO NAME = STAX                                                 00620500
.*                                                                      00644600
.*01* DESCRIPTIVE NAME = STAX macro                                     00652600
.*                                                                      00660600
.*01* PROPRIETARY STATEMENT =                                           00668700
.*                                                                      00692800
.*       LICENSED MATERIALS - PROPERTY OF IBM                           00837400
.*       THIS MACRO IS "RESTRICTED MATERIALS OF IBM"                    00855400
.*       5695-047 (C) COPYRIGHT IBM CORP. 1981, 1991                    00873400
.*       SEE COPYRIGHT INSTRUCTIONS                                     00891400
.*                                                                      00909700
.*01* STATUS = JBB4422                                             @L1C 00933800
.*                                                                      00957900
.*01* FUNCTION = Provide the interface to the STAX service routines     00958700
.*               (IEAVAX00, IEAVAX01, and IEAVAX02)                     00959500
.*                                                                      00960300
.*01* OPERATION = Create, delete, modify, or defer an attention exit    00961100
.*                routine.                                              00961200
.*                                                                      00961300
.*01* USAGE =                                                           00961400
.*                                                                      00961500
.* Use the STAX service routine in your command processor or problem    00961600
.* program to cause the system to recognize and schedule an attention   00961700
.* exit routine that receives control asynchronously when an            00961800
.* attention interruption occurs.  Attention interruptions occur        00961900
.* when a user presses the attention key or when a simulated            00962000
.* attention is specified.  The address of an attention exit routine    00962100
.* to receive control is specified in the STAX macro invocation.        00962200
.*                                                                      00962300
.* If the ATTENTION key is pressed once, the first-level attention      00962400
.* exit is given control; if pressed twice, the second-level            00962500
.* attention exit is given control, and so forth (LIFO order).          00962600
.* The attention exit routine receives control in the same addressing   00962700
.* mode (24, 31) in which the corresponding STAX macro is issued.       00962800
.*                                                                      00962900
.* The STAX macro instruction can also be used to cancel the last       00963000
.* attention exit routine established by the task.  To do this, specify 00963100
.* the STAX macro instruction without any operands.                     00963200
.*                                                                      00963300
.* The STAX macro instruction is used only in a time sharing            00963400
.* environment. When a task other than a TSO user issues the STAX       00963500
.* macro, no action is taken.  In addition, attention exits can be      00963600
.* established only for time sharing tasks operating in the foreground. 00963700
.*                                                                      00963800
.* For information on writing attention exit routines, see TSO          00963900
.* Extensions Programming Guide.                                        00964000
.*                                                                      00965100
.*01* SYNTAX =                                                          00965900
.*                                                                      00966700
.* The STAX macro is available only in assembler.                       00968700
.*                                                                      00970700
.* The STAX macro instruction has a list, an execute, and a standard    00970800
.* form.                                                                00970900
.*                                                                      00971000
.*                                                                      00971100
.* The following are the valid combinations of parameters:              00971200
.*                                                                      00971300
.*     STAX    exit address                                             00971400
.*                                                                      00971500
.*              ,OBUF=(output buffer address,size)                      00971600
.*              ,IBUF=(input buffer address,size)                       00971700
.*              ,USADDR=user address                                    00971800
.*              ,DEFER=YES/NO                                           00971900
.*              ,REPLACE=YES/NO           {Default: YES}                00972000
.*              ,IGNORE=YES/NO                                          00972300
.*              ,CLSTATTN=YES/NO          {Default: NO, See Note 2}     00973100
.*              ,TOPLEVL=YES/NO           {Default: NO, See Note 2}     00973900
.*              ,MF=L or ,MF=(E,address)                                00974700
.*                                                                      00975500
.*                                                                      00976300
.*     STAX    DEFER=YES/NO                                             00977100
.*            ,MF=L or ,MF=(E,address)                                  00977900
.*                                                                      00978700
.*                                                                      00979500
.*     STAX   LINKAGE=BRANCH              {Default: SVC, See Note 3}    00980300
.*           ,DEFER=YES/NO                                              00981100
.*                                                                      00981900
.*                                                                      00982700
.*     STAX   IGNORE=YES/NO               {See Note 4}                  00983500
.*                                                                      00984300
.*     STAX                               {See Note 5}                  00985100
.*                                                                      00985900
.*     Notes:                                                           00986700
.*       1) When STAX is issued in 31 bit addressing mode, exit address 00987500
.*          and USADDR can reside above the 16 Meg line in virtual      00988300
.*          storage.  All other input must reside below the line.       00989100
.*       2) The optional parameters CLSTATTN and TOPLEVL each require   00989900
.*          that an exit address be specified.                          00990700
.*       3) When LINKAGE=BRANCH is specified, DEFER=YES/NO is the       00991500
.*          ONLY parameter allowed.  STAX branch entry defer is a       00992300
.*          service reserved only for certain callers - see             00993700
.*          "RESTRICTIONS" section.                                     00995100
.*       4) STAX IGNORE with no other operands may ONLY be specified    00996500
.*          when coded within an attention exit previously established  00997900
.*          with the CLSTATTN=YES parameter.                            00998700
.*       5) STAX issued without any operands will cancel the last       00999500
.*          attention exit routine established by the task.             01000300
.*                                                                      01000400
.* exit address                                                         01000500
.*   Specify the entry point of the routine to be given control when an 01000600
.*   attention interruption is received.  You must specify the exit     01000700
.*   address in both the list and the execute forms of the STAX macro   01000800
.*   instruction when you are establishing an attention interruption    01000900
.*   handling exit.                                                     01001000
.*                                                                      01001100
.* OBUF=(output buffer address,output buffer size)                      01001200
.*   Output buffer address - Supply the address of a buffer you have    01001300
.*   obtained and initialized with the message to be put out to the     01001400
.*   terminal user who enters the attention interruption.  This message 01001500
.*   can indentify the exit routine and request information from the    01001600
.*   terminal user.  It is sent to the terminal before the attention    01001700
.*   exit routine is given control.                                     01001800
.*                                                                      01001900
.*   Output buffer size - Indicate the number of characters in the      01002000
.*   Output Buffer.  The size can range from 0 to 32,767 inclusive.     01002100
.*                                                                      01002200
.* IBUF=(input buffer address,input buffer size)                        01002300
.*   Input buffer address - Supply the address of a buffer you have     01002400
.*   obtained to receive responses from the terminal user.  The         01002500
.*   attention exit routine is not given control until the STAX service 01002600
.*   routine has placed the terminal user's reply into this buffer.     01002700
.*                                                                      01002800
.*   Input buffer size - Indicate the number of bytes you have provided 01002900
.*   as an input buffer.  The size can range from 0 to 32,767           01003000
.*   inclusive.                                                         01003100
.*                                                                      01003200
.* USADDR=(user address)                                                01003300
.*   The user address is a 24- or 31-bit address that points to any     01003400
.*   information you want passed to your attention handling exit        01003500
.*   routine when it is given control.  When the attention exit gains   01003600
.*   control, register 1 points to the attention exit parameter list.   01003700
.*                                                                      01003800
.*                                                                      01003900
.*    Number                                                            01004000
.*  of Bytes      Contents or Meaning                                   01004100
.*  --------      -------------------                                   01004200
.*                                                                      01004300
.*     4    The address of the terminal attention interrupt element     01004400
.*          (TAIE).                                                     01004500
.*                                                                      01004600
.*     4    The address of the input buffer you specified as the IBUF   01004700
.*          operand of the STAX macro instruction.  This field is zero  01004800
.*          if you did not include the IBUF operand in the STAX macro   01004900
.*          instruction.                                                01005000
.*                                                                      01005100
.*     4    The address of the user parameter information you specified 01005200
.*          as the USADDR operand of the STAX macro instruction.  This  01005300
.*          field is zero if you did not include the USADDR operand in  01005400
.*          the STAX macro instruction.                                 01005500
.*                                                                      01005600
.*                                                                      01005700
.* REPLACE=YES or NO                                                    01005800
.*   YES indicates that the attention exit specified by this STAX macro 01005900
.*   instruction replaces any attention exit specified by a STAX macro  01006000
.*   instruction previously issued by this task.  YES is the default    01006100
.*   value.  REPLACE implies establishing a new attention exit routine  01006200
.*   for the task, if no previous attention exit has been established.  01006300
.*                                                                      01006400
.*   NO indicates that this attention exit be established as a new      01006500
.*   attention exit for this task, in addition to any that have been    01006600
.*   previously established for this task.                              01006700
.*                                                                      01006800
.* DEFER=YES or NO                                                      01006900
.*   If the DEFER operand is coded in the STAX macro instruction, the   01007000
.*   option you request (YES or NO) applies to all tasks within the     01007100
.*   task chain in which the macro instruction was issued.  Any task    01007200
.*   can issue the STAX macro instruction to specify DEFER=YES or NO;   01007300
.*   it is not necessary for the issuing task itself to have provided   01007400
.*   an attention exit routine.  If the DEFER operand is not coded in   01007500
.*   the macro instruction, no action is taken by the STAX service      01007600
.*   routine regarding the deferral of attention exits.                 01007700
.*                                                                      01007800
.*   YES indicates that any attention interruptions received are to     01007900
.*   be queued and are not to be processed until another STAX macro     01008000
.*   instruction is executed specifying DEFER=NO, or until the program  01008100
.*   that issued the STAX with the DEFER=YES terminates.                01008200
.*                                                                      01008300
.*   NO indicates that the defer option is being cancelled.  Any        01008400
.*   attention interruptions received while the defer option was in     01008500
.*   effect will be processed.                                          01008600
.*                                                                      01008700
.*   Be aware that if a program issues a STAX macro instruction         01008800
.*   specifying DEFER=YES, the program can get into a situation where   01008900
.*   an attention interruption cannot be received from the terminal.    01009000
.*   If your program enters a loop or an unending wait before it has    01009100
.*   issued a STAX macro instruction specifying DEFER=NO, you cannot    01009200
.*   regain control at the terminal by entering an attention            01009300
.*   interruption.                                                      01009400
.*                                                                      01009500
.*   You do not need to specify an exit address in a STAX macro         01009600
.*   instruction issued only to change deferral status.                 01009700
.*                                                                      01009800
.* CLSTATTN=YES or NO                                                   01009900
.*   The CLSTATTN operand is optional.  Code it only when you are       01010000
.*   establishing an attention exit. If you code the CLSTATTN keyword,  01010100
.*   you must provide an exit address.                                  01010200
.*                                                                      01010300
.*   YES indicates that the attention exit being established can        01010400
.*   receive control for normal attention interruptions and for         01010500
.*   attention interruptions that occur while a CLIST with a CLIST      01010600
.*   attention exit is processing.  When an attention interruption      01010700
.*   occurs while a CLIST with a CLIST attention exit is processing,    01010800
.*   the last attention exit established with the CLSTATTN operand then 01010900
.*   gains control. The CLIST attention exit is processed or control is 01011000
.*   passed to the CLIST attention facility. If no attention exit was   01011100
.*   established with the CLSTATTN operand, control passes to the first 01011200
.*   attention exit established.                                        01011300
.*                                                                      01011400
.*   NO is the default value for the CLSTATTN operand.  No indicates    01011500
.*   that the attention exit being established cannot process a CLIST   01011600
.*   that has a CLIST attention exit.                                   01011700
.*                                                                      01011800
.* IGNORE=YES or NO                                                     01011900
.*   The IGNORE operand is optional and is effective only when used in  01012000
.*   conjunction with the CLSTATTN=YES operand.  The IGNORE operand can 01012100
.*   be coded at two times: 1) when establishing an attention exit and  01012200
.*   2) within an attention exit.  Use the IGNORE operand only when     01012300
.*   attention interruptions are to be ignored or reestablished.        01012400
.*                                                                      01012500
.*   IGNORE=YES, when coded with the CLSTATTN operand (and an exit      01012600
.*   address) to establish an attention exit, indicates that attention  01012700
.*   interruptions are to be ignored when the attention exit being      01012800
.*   established receives control.                                      01012900
.*                                                                      01013000
.*   When coded within an attention exit previously established with    01013100
.*   the CLSTATTN=YES operand, IGNORE=YES also indicates that attention 01013200
.*   interruptions are to be ignored until the attention exit currently 01013300
.*   in control returns control to the system or issues the IGNORE=NO   01013400
.*   operand.  However, when coded within an attention exit, IGNORE=YES 01013500
.*   must be the only operand on the STAX macro instruction.            01013600
.*                                                                      01013700
.*   NO indicates that attention interruptions are to be reestablished. 01013800
.*   An attention exit established with the CLSTATTN=YES operand can    01013900
.*   issue IGNORE=NO to indicate that attention interruptions are to be 01014000
.*   reestablished.  The IGNORE=NO operand must be the only operand on  01014100
.*   the STAX macro instruction.  IGNORE, without the CLSTATTN operand  01014200
.*   and an exit address, can only be issued by an attention exit that  01014300
.*   was established with the CLSTATTN=YES operand.                     01014400
.*                                                                      01014500
.* TOPLEVL=YES or NO                                                    01014600
.*   The TOPLEVL operand is optional.  Code it only when you are        01014700
.*   establishing an attention exit. If you code the TOPLEVL operand,   01014800
.*   you must provide an exit address.                                  01014900
.*                                                                      01015000
.*   NO indicates that attention exits received prior to the one being  01015100
.*   established can receive control when the attention key is pressed  01015200
.*   multiple times.  For example, when the user presses the attention  01015300
.*   key two times, the next to last attention exit received is given   01015400
.*   control.  NO is the default value for the TOPLEVL operand.         01015500
.*                                                                      01015600
.*   YES indicates that when the attention key is pressed multiple      01015700
.*   times, control is NOT to be passed to previously received          01015800
.*   attention exits.  When an attention exit established with the      01015900
.*   TOPLEVL=YES operand receives control, the user cannot terminate    01016000
.*   execution of the exit by pressing the attention key.               01016100
.*                                                                      01016200
.* LINKAGE=SVC    (Default)                                             01016300
.*         BRANCH                                                       01016400
.*   The LINKAGE keyword is optional.  If it is not specified it        01016500
.*   defaults to LINKAGE=SVC.  This keyword specifies the type of       01016600
.*   linkage from the caller to the STAX service routines.              01016700
.*                                                                      01016800
.*   The LINKAGE=BRANCH option is only available to key 0,              01016900
.*   supervisor state users.  When LINKAGE=BRANCH is specified,         01017000
.*   DEFER= is the only other parameter allowed.                        01017100
.*                                                                      01017200
.* MF=L                                                                 01017300
.*   This specifies the list form of the STAX macro instruction.  It    01017400
.*   generates a STAX parameter list.                                   01017500
.*                                                                      01017600
.* MF=(E,address)                                                       01017700
.*   This specifies the execute form of the STAX macro instruction.  It 01017800
.*   completes or modifies the STAX parameter list and passes the       01017900
.*   address of the parameter list to the STAX service routine.         01018000
.*                                                                      01018100
.* You can place each of the required address and size parameters into  01018200
.* registers and specify those registers, within parentheses, in the    01018300
.* STAX macro instruction. The following example shows how an execute   01018400
.* form of the STAX macro instruction might look if you load all the    01018500
.* required parameters into registers.                                  01018600
.*                                                                      01018700
.*   STAX    (2),IBUF=((3),(4)),OBUF=((5),(6)),USADDR=(7),MF=(E,(1))    01018800
.*                                                                      01018900
.*01* NOTES =                                                           01019000
.*                                                                      01019100
.*      RESTRICTIONS =                                                  01019200
.*       1) For STAX LINKAGE=BRANCH,DEFER=YES/NO, invoker must be in    01019300
.*          task mode, key 0, supervisor state.                         01019400
.*       2) For STAX LINKAGE=BRANCH,DEFER=NO, invoker must also be      01019500
.*          enabled and unlocked.                                       01019600
.*                                                                      01019700
.*      DEPENDENCIES =                                                  01019800
.*          If any new parameters are added to the STAX macro, the      01019900
.*          statement following label "CHKALL" must be revised to       01020000
.*          check for them.                                             01020100
.*                                                                      01020200
.*                                                                      01020300
.*01* Return Codes from the STAX Service Routine                        01020400
.*                                                                      01020500
.* When control is returned, register 1 either contains the address of  01020600
.* the user parameter list provided for the previous exit for this task 01020700
.* or it contains zero.  Register 1 contains zero if this is the first  01020800
.* STAX issued for this task, the STAX was issued with a cancel option, 01020900
.* or the STAX was issued with only the DEFER option.  If an error was  01021000
.* detected (return code 8, 12 or 16), then the contents of register 1  01021100
.* is the same as it was at entry.                                      01021200
.*                                                                      01021300
.* Register 15 contains one of the following return codes:              01021400
.*                                                                      01021500
.*    Return Code                                                       01021600
.*    Dec (Hex)                         Description                     01021700
.*    -----------                       -----------                     01021800
.*                                                                      01021900
.*    0 (0)          The STAX service routine successfully completed    01022000
.*                                                                      01022100
.*    4 (4)          Deferral of attention exits has already been       01022200
.*                   requested and is presently in effect.  Any other   01022300
.*                   operands you specified in the STAX macro           01022400
.*                   instructions have processed processed              01022500
.*                   successfully.                                      01022600
.*                                                                      01022700
.*    8 (8)          The user of the DEFER option isinvalid             01022800
.*                   (asynchronous exit routine).                       01022900
.*                                                                      01023000
.*    12 (C)         The STAX macro has already been issued with the    01023100
.*                   IGNORE=YES operand.                                01023200
.*                                                                      01023300
.*    16 (10)        The STAX macro has already been issued with the    01023400
.*                   IGNORE=NO operand.                                 01023500
.*                                                                      01023600
.*    20 (14)        A branch entry STAX DEFER=NO was requested, but    01023700
.*                   attentions were not deferred.                      01023800
.*                                                                      01023900
.*    24 (18)        A branch entry STAX DEFER=NO was requested, but    01024000
.*                   the task is still not eligible for attentions.     01024100
.*                                                                      01024200
.*                                                                      01024300
.* Note: If the STAX macro instruction is issued by a task that is not  01024400
.* executing in a TSO/E user's address space, a return code of zero is  01024500
.* passed to the caller in register 15.  The contents of register 1 is  01024600
.* not altered.                                                         01024700
.*                                                                      01024800
.*01* COMPONENT = SC1CU (Region Control Task)                           01024900
.*                                                                      01025000
.*01* CHANGE ACTIVITY =                                                 01025100
.*                                                                      01025200
.*  $D1=DCR0082  JBB2220  850814  PD16H5:  CLIST ATTN EXIT SUPPORT      01030200
.*  $01=OY12344  JBB2220  880506  PD16BN:  TOPLEVL ATTN EXIT SUPPORT    01062300
.*  $L1=FMCSX    JBB4422  900928  PD16IG:  Branch entry STAX DEFER      01066300
.*                                                                      01070300
.*01* DISTRIBUTION LIBRARY = ATSOMAC                                    01110500
.*                                                                      01150700
.*** END OF SPECIFICATIONS ******************************************** 01174800
         GBLC  &SYSSPLV           GLOBAL FOR SPLEVEL MACRO     @G860PXZ 01200000
         SPLEVEL TEST             OBTAIN DEFAULT FOR SYSSPLV   @G860PXZ 01250000
         AIF   ('&SYSSPLV' EQ '1').LEVEL1 CHECK LEVEL TO GEN.  @G860PXZ 01300000
.*       GENERATE THE HIGHEST LEVEL MACRO                      @G860PXZ 01350000
*        MACDATE    9/28/90                                        @L1C 01400000
         LCLC  &ERRORSFOUND                                        @L1A 01450000
         LCLA  &A                                                       01500020
         LCLC  &GNAME,&H                                                02000020
         LCLA  &REPLSW,&DEFRSW                                          02500002
         LCLA  &CLIST,&IGNORY,&IGNORNO,&CLST,&IGNN,&IGNY           @D1A 02525000
         LCLA  &REPLYES,&REPLNO,&CLEAR                           YM4019 02550002
         LCLA  &NEWFORM,&FORMNUM                               @G860PXB 02562500