         MACRO                                                          03000003
&NAME    STBL  &N                                                       06000003
         LCLA  &X                       COUNTER OF TABLE ENTRIES        09000003
         LCLA  &P                                                       12000003
&NAME    EQU   *                                                        15000003
.A       ANOP                                                           18000003
&X       SETA  &X+1                                                     21000003
         AIF   ('&SYSLIST(&X)' EQ '').END                               24000003
&P       SETA  &SYSLIST(&X)                                             27000003
         AIF   ('&P' GE '11' AND '&P' LE '16' OR '&P' GE '21' AND '&P' X30000003
               LE '26' OR '&P' GE '31' AND '&P' LE '36' OR '&P' GE '41'X33000003
                AND '&P' LE '46' OR '&P' GE '51' AND '&P' LE '56').B    36000003
         AIF   ('&P' GE '61' AND '&P' LE '66').B                        39000003
         MNOTE 12,'***  IHB356  INVALID MODULE POCKET  CODE;  MP11 IS  X42000000
               ASSUMED'                                                 43000000
         DC    XL1'11'                  DEFAULT TABLE ENTRY             45000003
         AGO   .A                                                       48000003
.B       ANOP                                                           51000003
         DC    X'&SYSLIST(&X)'          TABLE ENTRY                     54000003
         AGO   .A                                                       57000003
.END     MEND                                                           60000003
