*%/*                                                                    00050000
         MACRO                                                          00100000
&NAME    STCKCONV &STCKVAL=,       Address of input STCK value         *00150000
               &STCKEVAL=,         Address of input STCKE value    @L1A*00175000
               &CONVVAL=,          Address of converted values         *00200000
               &TIMETYPE=,         Type of time format                 *00250000
               &DATETYPE=,         Type of date format                 *00300000
               &MF=                Macro form                           00350000
         AGO   .SKIP                                                 */ 00400000
*/****  START OF SPECIFICATIONS  *************************************/ 00450000
*/*                                                                  */ 00500000
*/*01*  MACRO NAME = STCKCONV                                        */ 00550000
*/*                                                                  */ 00600000
*/*01*  DESCRIPTIVE NAME = STCKCONV macro                            */ 00650000
*/*                                                                  */ 00656200
*/*01* PROPRIETARY STATEMENT:                                    @L1C*/ 00662400
*/*                                                                  */ 00668600
*/*    LICENSED MATERIALS - PROPERTY OF IBM                          */ 00676400
*/*    THIS MODULE IS "RESTRICTED MATERIALS OF IBM"                  */ 00684200
*/*    5647-A01 (C) COPYRIGHT IBM CORP. 1990, 1999                   */ 00692000
*/*                                                                  */ 00700000
*/*01*  STATUS =  HBB6608                                        @L1C*/ 00750000
*/*                                                                  */ 00760000
*/*01* EXTERNAL CLASSIFICATION:                                      */ 00770000
*/*02*         GUPI:BASE                                             */ 00780000
*/*01* END OF EXTERNAL CLASSIFICATION:                               */ 00790000
*/*                                                                  */ 00800000
*/*01*  FUNCTION =                                                   */ 00850000
*/*       Converts an input TOD clock value to formatted time        */ 00900000
*/*       of day and date.                                           */ 00950000
*/*                                                                  */ 01000000
*/*02*    OPERATION =                                                */ 01050000
*/*         The STCKCONV macro parses the keywords and invokes the   */ 01100000
*/*         the PC TIME/STCKCONV Service Routine (IEATTIME) via      */ 01150000
*/*         PC.                                                      */ 01200000
*/*                                                                  */ 01250000
*/*01*  SYNTAX =                                                     */ 01300000
*/*                                                                  */ 01350000
*/*     STCKCONV                                                     */ 01366600
*/*              type                                                */ 01383200
*/*                   Either STCKVAL or STCKEVAL is required.        */ 01399800
*/*                                                                  */ 01416400
*/*                      STCKVAL=Rx-address | (2)-(12)               */ 01433000
*/*                             Specifies the address of a           */ 01450000
*/*                             doubleword (8-byte) area containing  */ 01500000
*/*                             a 64-bit TOD clock value to be       */ 01515000
*/*                             converted.                           */ 01530000
*/*                                                                  */ 01545000
*/*                                                                  */ 01560000
*/*                      STCKEVAL=Rx-address | (2)-(12)              */ 01575000
*/*                             Specifies the address of a           */ 01590000
*/*                             quadword (16-byte) area containing   */ 01605000
*/*                             a 128-bit TOD clock value to be      */ 01620000
*/*                             converted.                           */ 01635000
*/*                                                                  */ 01650000
*/*                                                                  */ 01700000
*/*              ,CONVVAL=RX-address | (2)-(12)                      */ 01750000
*/*                             Specifies the address of a 4-word    */ 01800000
*/*                             (16-byte) area that the converted    */ 01850000
*/*                             value is returned to.                */ 01900000
*/*                             Required keyword.                    */ 01950000
*/*                                                                  */ 02000000
*/*                                                                  */ 02050000
*/*                             The time of day is returned in the   */ 02100000
*/*                             first 2 words and the date is        */ 02150000
*/*                             returned in the third word of the    */ 02200000
*/*                             specified area.                      */ 02250000
*/*                                                                  */ 02300000
*/*                                                                  */ 02350000
*/*                 ,TIMETYPE=  Specifies the time of day format     */ 02400000
*/*                             that the TOD clock value is          */ 02450000
*/*                             converted to:                        */ 02500000
*/*                                                                  */ 02550000
*/*                        DEC  (Default) Decimal digits of          */ 02600000
*/*                             the form HHMMSSthmiju0000, where:    */ 02650000
*/*                             HH is hours (based on a 24-hour      */ 02700000
*/*                                           clock)                 */ 02750000
*/*                             MM is minutes                        */ 02800000
*/*                             SS is seconds                        */ 02850000
*/*                             t  is tenths of seconds              */ 02900000
*/*                             h  is hundredths of seconds          */ 02950000
*/*                             m  is milliseconds                   */ 03000000
*/*                             i  is ten-thousandths of seconds     */ 03050000
*/*                             j  is hundred-thousandths of seconds */ 03100000
*/*                             u  is microseconds                   */ 03150000
*/*                                                                  */ 03200000
*/*                        BIN  Unsigned binary number with the      */ 03250000
*/*                             low-order bit equivalent to 0.01     */ 03300000
*/*                             seconds.                             */ 03350000
*/*                                                                  */ 03400000
*/*                        MIC  Microseconds.                        */ 03450000
*/*                                                                  */ 03500000
*/*                                                                  */ 03550000
*/*                 ,DATETYPE=  Specifies the date format that the   */ 03600000
*/*                             TOD clock value is converted to:     */ 03650000
*/*                                                                  */ 03700000
*/*                    YYYYDDD  (Default) Decimal digits of          */ 03750000
*/*                             the form YYYYDDD, where:             */ 03800000
*/*                             YYYY is the four digits of the year  */ 03850000
*/*                             DDD is the day of the year           */ 04050000
*/*                                                                  */ 04250000
*/*                   MMDDYYYY  Decimal digits of the form           */ 04300000
*/*                             MMDDYYYY where:                      */ 04350000
*/*                             MM  is the month of the year         */ 04500000
*/*                             DD  is the day of the month          */ 04550000
*/*                             YYYY is the four digits of the year  */ 04600000
*/*                                                                  */ 04850000
*/*                   DDMMYYYY  Decimal digits of the form           */ 04900000
*/*                             DDMMYYYY, where:                     */ 04950000
*/*                             DD  is the day of the month          */ 05100000
*/*                             MM  is the month of the year         */ 05150000
*/*                             YYYY is the four digits of the year  */ 05200000
*/*                                                                  */ 05450000
*/*                   YYYYMMDD  Decimal digits of the form           */ 05500000
*/*                             YYYYMMDD, where:                     */ 05550000
*/*                             YYYY is the four digits of the year  */ 05600000
*/*                             MM  is the month of the year         */ 05800000
*/*                             DD  is the day of the month          */ 05850000
*/*                                                                  */ 06150000
*/*                                                                  */ 06200000
*/*                 ,MF=         Macro form                          */ 06250000
*/*                                                                  */ 06300000
*/*                    L        List form                            */ 06350000
*/*                             NOTE: No other keywords are valid on */ 06400000
*/*                             the list form.                       */ 06450000
*/*                                                                  */ 06500000
*/*                    (E,rx-address) | (E,(1)-(12))                 */ 06550000
*/*                             Execute form                         */ 06600000
*/*                                                                  */ 06650000
*/*                                                                  */ 06700000
*/*01*  INVOKING REQUIREMENTS =                                      */ 06750000
*/*       Authorization          = None required                     */ 06800000
*/*       Dispatchable unit mode = Any                               */ 06850000
*/*       Cross memory mode      = Any                               */ 06900000
*/*       Amode                  = Any - all addresses specified     */ 06950000
*/*                                must be clean 31-bit addresses    */ 07000000
*/*       ASC mode               = Primary or AR                     */ 07050000
*/*       Serialization          = None required - the caller may    */ 07100000
*/*                                enabled or disabled               */ 07150000
*/*                                                                  */ 07200000
*/*01*  NOTES =                                                      */ 07250000
*/*                                                                  */ 07300000
*/*02*    RESTRICTIONS = None                                        */ 07350000
*/*                                                                  */ 07400000
*/*02*    DEPENDENCIES = None                                        */ 07450000
*/*                                                                  */ 07500000
*/*03*      CHARACTER-CODE DEPENDENCIES= EBCDIC                      */ 07550000
*/*                                                                  */ 07600000
*/*01*  MODULE TYPE = BAL Macro (PL/AS version: STCKCNVP)            */ 07650000
*/*                                                                  */ 07700000
*/*01*  COMPONENT  =  SC1CV (Timer Supervision)                      */ 07750000
*/*                                                                  */ 07800000
*/*01*  DISTRIBUTION LIBRARY = AMACLIB                               */ 07850000
*/*                                                                  */ 07900000
*/**** END OF SPECIFICATIONS *****************************************/ 07950000
*/********************************************************************/ 08000000
*/*                                                                  */ 08050000
*/*  CHANGE ACTIVITY =                                               */ 08100000
*/* $D0=DHB1031  HBB4410  890313  PD162M: STCKCONV macro             */ 08150000
*/* $P1=PEO4152  HBB4410  900504  PD16H5: 4 digit year               */ 08175000
*/* $P2=PH31672  HBB4420  901022  PD16H5: Fix STCKVAL macro variable */ 08187500
*/* $P3=PN70593  HBB5520  940602  PD16H5: Add proprietary statement  */ 08193700
*/* $L1=STCKE    HBB6608  980530  B7HGH5: 128 bit TOD support        */ 08196800
*/*                                                                  */ 08200000
*/********************************************************************/ 08250000
*/*                                                                     08300000
.SKIP    ANOP ,                                                         08350000
*        MACDATE  05/30/98                                         @L1C 08400000
.*                                                                      08450000
.********************************************************************** 08500000
.*                                                                    * 08550000
.*       Declare GLOBAL and LOCAL variables                           * 08600000
.*                                                                    * 08650000
.********************************************************************** 08700000
.*                                                                      08750000
         LCLA  &DATET         DATETYPE bitstring                        08800000
         LCLA  &TIMET         TIMETYPE bitstring                        08850000
         LCLB  &D(4)          DATETYPE specified                        08900000
         LCLB  &T(3)          TIMETYPE specified                        08950000
         LCLB  &IHBERR        Error flag                                09000000
         LCLC  &REGA          Register name                             09050000
         LCLC  &REGB          Register name                             09100000
         LCLC  &REGC          Register name                             09150000
         LCLC  &REGD          Register name                             09200000
         LCLC  &INAME         Label for standard form parameter list    09250000
         LCLC  &ENAME         Branch label for the standard form        09300000
.*                                                                    * 09350000
.********************************************************************** 09400000
.*      Check for positional parameters                               * 09450000
.********************************************************************** 09500000
         AIF   (N'&SYSLIST GE 1).ERR01   Too many positionals           09550000
.*                                                                    * 09600000
.********************************************************************** 09650000
.*      Validate STCKVAL/STCKEVAL parameter                           * 09700000
.********************************************************************** 09750000
.CHKSTK  ANOP  ,                                                        09800000
         AIF   ('&STCKVAL' NE '' AND '&STCKEVAL' NE '').ERR15      @L1A 09837500
         AIF   ('&STCKVAL' EQ '').CHKST1 Check for STCKEVAL if STCKVAL  09875000
.*                                       not specified             @L1A 09912500
         AIF   (N'&STCKVAL GT 1).ERR02   Too many sublists              09950000
         AGO   .CHKCONV                                                 10000000
.CHKST1  ANOP  ,                                                   @L1A 10010000
         AIF   ('&STCKEVAL' EQ '').CHKMF1 Check for MF=L           @L1A 10020000
         AIF   (N'&STCKEVAL GT 1).ERR02  Too many sublists         @L1A 10030000
         AGO   .CHKCONV                                            @L1A 10040000
.CHKMF1  ANOP  ,                                                        10050000
         AIF   ('&MF' NE 'L').ERR03      STCKVAL/STCKEVAL required      10100000
.*                                       unless MF=L                    10125000
.*                                                                    * 10150000
.********************************************************************** 10200000
.*      Validate CONVVAL parameter                                    * 10250000
.********************************************************************** 10300000
.CHKCONV ANOP  ,                                                        10350000
         AIF   ('&CONVVAL' EQ '').CHKMF2 Check for MF=L                 10400000
         AIF   (N'&CONVVAL GT 1).ERR04   Too many sublists              10450000
         AGO   .CHKTIME                                                 10500000
.CHKMF2  ANOP  ,                                                        10550000
         AIF   ('&MF' NE 'L').ERR05      CONVVAL required unless MF=L   10600000
.*                                                                    * 10650000
.********************************************************************** 10700000
.*      Validate TIMETYPE parameter, if present                       * 10750000
.********************************************************************** 10800000
.CHKTIME ANOP  ,                                                        10850000
         AIF   (N'&TIMETYPE GT 1).ERR13  Too many sublists              10900000
&T(1)    SETB  ('&TIMETYPE' EQ 'BIN')                                   10950000
&T(2)    SETB  ('&TIMETYPE' EQ 'DEC' OR '&TIMETYPE' EQ '')              11000000
&T(3)    SETB  ('&TIMETYPE' EQ 'MIC')                                   11050000
&TIMET   SETA  &T(1)+(&T(2)*2)+(&T(3)*3) Generate TIMETYPE bitstring    11100000
         AIF   (&TIMET EQ 0).ERR06       Invalid TIMETYPE specified     11150000
&TIMET   SETA  &TIMET+32                 Indicate STCKCONV request      11200000
.*                                                                    * 11250000
.********************************************************************** 11300000
.*      Validate DATETYPE parameter, if present                       * 11350000
.********************************************************************** 11400000
.CHKDATE ANOP  ,                                                        11450000
         AIF   (N'&DATETYPE GT 1).ERR14  Too many sublists              11500000
&D(1)    SETB  ('&DATETYPE' EQ 'MMDDYYYY')                         @P1C 11550000
&D(2)    SETB  ('&DATETYPE' EQ 'DDMMYYYY')                         @P1C 11600000
&D(3)    SETB  ('&DATETYPE' EQ 'YYYYMMDD')                         @P1C 11650000
&D(4)    SETB  ('&DATETYPE' EQ 'YYYYDDD' OR '&DATETYPE' EQ '')     @P1C 11700000
         AIF   (&D(1) EQ 0 AND &D(2) EQ 0 AND &D(3) EQ 0 AND &D(4) EQ 0X11750000
               ).ERR07                   Invalid DATETYPE specified     11800000
&DATET   SETA  &D(1)+&D(2)*2+&D(3)*3     Generate DATETYPE bitstring    11850000
.*                                                                    * 11900000
.********************************************************************** 11950000
.*       Validate MF keywords and options                             * 12000000
.********************************************************************** 12050000
.CHKMF   ANOP                                                           12100000
         AIF   ('&MF' EQ '').STD        Default is Standard form        12150000
         AIF   ('&MF' EQ 'L').LIST      List form                       12200000
         AIF   (N'&MF GT 2).ERR08       Too many sublists               12250000
         AIF   ('&MF(1)' NE 'E').ERR09  Must be E, if not L             12300000
         AIF   ('&MF(2)' EQ '').ERR10   Parameter list address required 12350000
         AIF   (N'&MF(2) GT 2).ERR11    Too many addresses              12400000
         AIF   (&IHBERR EQ 1).DONE            Exit if errors            12450000
.*                                                                    * 12500000
.********************************************************************** 12550000
.*  Generate PC linkage to service routine for Execute form of macro  * 12600000
.********************************************************************** 12650000
         AIF   ('&MF(2)'(1,1) EQ '(').ISAREGA                           12700000
&NAME    LAE   1,&MF(2)                PARAMETER LIST ADDRESS           12750000
         AGO   .CONT                                                    12800000
.ISAREGA AIF   ('&MF(2)' EQ '(1)').CONT Register 1 specified            12850000
&REGA    SETC  '&MF(2)'(2,K'&MF(2)-2)  Extract register name            12900000
&NAME    LAE   1,0(0,&REGA)            PARAMETER LIST ADDRESS           12950000
.CONT    ANOP                                                           13000000
         XC    0(28,1),0(1)            CLEAR PARAMETER LIST             13050000
         MVI   2(1),&DATET             SET DATETYPE FLAGS IN PARM LIST  13100000
         AIF   ('&STCKEVAL' NE '').STCKE                           @L1A 13150000
         AIF   ('&STCKVAL'(1,1) EQ '(').ISAREGB                    @P2C 13200000
         LAE   14,&STCKVAL             ADDRESS OF STCKVAL               13250000
         AGO   .MOVEVAL                                                 13300000
.ISAREGB ANOP                                                           13350000
&REGB    SETC  '&STCKVAL'(2,K'&STCKVAL-2) Extract register name         13400000
         LAE   14,0(0,&REGB)           ADDRESS OF STCKVAL               13450000
.MOVEVAL ANOP                                                           13500000
         MVC   4(8,1),0(14)            SET STCKVAL IN PARM LIST         13550000
         AGO   .COMMON                                             @L1A 13556600
.STCKE   ANOP                                                      @L1A 13563200
         AIF   ('&STCKEVAL'(1,1) EQ '(').ISAREGE                   @L1A 13569800
         LAE   14,&STCKEVAL            ADDRESS OF STCKEVAL         @L1A 13576400
         AGO   .MOVE2                                              @L1A 13583000
.ISAREGE ANOP                                                      @L1A 13589600
&REGB    SETC  '&STCKEVAL'(2,K'&STCKEVAL-2) Extract register name  @L1A 13596200
         LAE   14,0(0,&REGB)           ADDRESS OF STCKEVAL         @L1A 13602800
.MOVE2   ANOP                                                      @L1A 13609400
&TIMET   SETA  &TIMET+64               Indicate STCKEVAL request   @L1A 13616000
         MVC   12(16,1),0(14)          SET STCKEVAL IN PARM LIST   @L1A 13622600
.COMMON  ANOP                                                      @L1C 13629200
         MVI   3(1),&TIMET             SET TIMETYPE FLAGS IN PLIST @L1M 13635800
         L     14,16(0,0)              CVT ADDRESS                      13642400
         L     14,772(14,0)            SFT ADDRESS                      13650000
         L     14,304(14,0)            LX/EX FOR SERVICE ROUTINE        13700000
         PC    0(14)                                                    13750000
         AIF   ('&CONVVAL'(1,1) EQ '(').ISAREGC In a register           13800000
         LAE   14,&CONVVAL             ADDRESS OF CONVVAL               13850000
         AGO   .MOVE                                                    13900000
.ISAREGC ANOP                                                           13950000
&REGC    SETC  '&CONVVAL'(2,K'&CONVVAL-2) EXTRACT REGISTER NAME         14000000
         LAE   14,0(0,&REGC)           ADDRESS OF CONVVAL               14050000
.MOVE    ANOP                                                           14100000
         MVC   0(16,14),12(1)          MOVE OUTPUT FROM PARM LIST       14150000
*                                      TO CONVVAL AREA                  14200000
         MEXIT                                                          14250000
.********************************************************************** 14300000
.*       Generate parameter list for Standard form of macro           * 14350000
.********************************************************************** 14400000
.STD     ANOP                                                           14450000
         AIF   (&IHBERR EQ 1).DONE     Exit if errors                   14500000
&INAME   SETC   'IHB'.'&SYSNDX'.'K'                                     14550000
&ENAME   SETC   'IHB'.'&SYSNDX'.'A'                                     14600000
&NAME    DS    0H                                                       14650000
         LAE   1,0(0,0)                ZERO ACCESS REGISTER 1           14700000
         LA    1,&INAME                POINT TO PARAMETER LIST          14750000
         MVI   2(1),&DATET             SET DATETYPE FLAGS IN PARM LIST  14800000
         AIF   ('&STCKEVAL' NE '').STCKE1                          @L1A 14850000
         AIF   ('&STCKVAL'(1,1) EQ '(').ISAREGD  STCKVAL in a register  14900000
         LAE   14,&STCKVAL             ADDRESS OF STCKVAL               14950000
         AGO   .MOVEIT                                                  15000000
.ISAREGD ANOP                                                           15050000
&REGD    SETC  '&STCKVAL'(2,K'&STCKVAL-2) Extract register name         15100000
         LAE   14,0(0,&REGD)           ADDRESS OF STCKVAL               15150000
.MOVEIT  ANOP                                                           15200000
         MVC   4(8,1),0(14)            MOVE STCKVAL INTO PARM LIST      15250000
         AGO   .BRAN                                               @L1A 15253800
.STCKE1  ANOP                                                      @L1A 15257600
         AIF   ('&STCKEVAL'(1,1) EQ '(').ISAREGF                   @L1A 15261400
         LAE   14,&STCKEVAL            ADDRESS OF STCKEVAL         @L1A 15265200
         AGO   .MOVE3                                              @L1A 15269000
.ISAREGF ANOP                                                      @L1A 15272800
&REGD    SETC  '&STCKEVAL'(2,K'&STCKEVAL-2) Extract register name  @L1A 15276600
         LAE   14,0(0,&REGD)           ADDRESS OF STCKEVAL         @L1A 15280400
.MOVE3   ANOP                                                      @L1A 15284200
&TIMET   SETA  &TIMET+64               Indicate STCKEVAL request   @L1A 15288000
         MVC   12(16,1),0(14)          SET STCKEVAL IN PARM LIST   @L1A 15291800
.BRAN    ANOP                                                      @L1A 15295600
         B     &ENAME                  BRANCH AROUND LIST               15300000
&INAME   DS    0F                                                       15350000
         DC    FL2'0'                                                   15400000
         DC    FL1'0'                                                   15450000
         DC    FL1'0'                                                   15500000
         DC    2F'0'                                                    15550000
         DC    2F'0'                                                    15600000
         DC    2F'0'                                                    15650000
&ENAME   DS    0H                                                       15700000
         AGO    .COMMON                                                 15750000
.********************************************************************** 15800000
.*       Generate parameter list for List form of macro               * 15850000
.********************************************************************** 15900000
.LIST    ANOP                                                           15950000
         AIF   ('&STCKVAL' NE '' OR '&STCKEVAL' NE '' OR '&CONVVAL' NE X16000000
               '' OR '&TIMETYPE' NE '' OR '&DATETYPE' NE '').ERR12 @L1C 16050000
         AIF   (&IHBERR EQ 1).DONE     Exit if errors                   16100000
&NAME    DS    0F                                                       16150000
         DS    XL28                                                     16200000
.DONE    MEXIT                                                          16250000
.*                                                                    * 16300000
.********************************************************************** 16350000
.*                                                                    * 16400000
.*       Error Messages                                               * 16450000
.*                                                                    * 16500000
.********************************************************************** 16550000
.ERR01   MNOTE 12,' EXCESSIVE POSITIONAL PARAMETERS - &SYSLIST(1)'      16600000
&IHBERR  SETB  1                        Indicate error                  16650000
         AGO   .CHKSTK                  Continue                        16700000
.ERR02   MNOTE 12,' ''STCKVAL'' PARAMETER CONTAINS TOO MANY SUBLISTS.'  16750000
&IHBERR  SETB  1                          Indicate error                16800000
         AGO   .CHKCONV                   Continue                      16850000
.ERR03   MNOTE 12,' ''STCKVAL'' OR ''STCKEVAL'' PARAMETER IS REQUIRED.' 16883300
.*                                                                 @L1C 16916600