         MACRO                                                          00050000
&NAME    STIMERM &TYPE,                                                +00100000
               &ID=,                                                   +00150000
               &DINTVL=,                                               +00200000
               &BINTVL=,                                               +00250000
               &GMT=,                                                  +00300000
               &LT=,                                               @L1A+00325000
               &MICVL=,                                                +00350000
               &TOD=,                                                  +00400000
               &TUINTVL=,                                              +00450000
               &TU=,                                                   +00500000
               &MIC=,                                                  +00550000
               &ERRET=,                                                +00600000
               &EXIT=,                                                 +00650000
               &PARM=,                                                 +00700000
               &WAIT=NO,                                               +00750000
               &MF=I,                                                  +00783300
               &RELATED=                                                00816600
.********************************************************************** 00850000
.*                                                                    * 00900000
.* MACRO NAME = STIMERM                                               * 00950000
.*                                                                    * 01000000
.* PROPRIETARY STATEMENT =                                            * 01050000
.*    LICENSED MATERIALS - PROPERTY OF IBM                        @L1C* 01170000
.*    THIS MACRO IS "RESTRICTED MATERIALS OF IBM"                     * 01177500
.*    5695-047 (C)COPYRIGHT IBM CORPORATION 1984, 1990                * 01185000
.*    SEE COPYRIGHT INSTRUCTIONS                                      * 01192500
.*                                                                    * 01200000
.* STATUS = HBB4410                                               @L1C* 01250000
.*                                                                    * 01300000
.* FUNCTION =                                                         * 01350000
.*                                                                    * 01400000
.*    THE STIMERM MACRO ALLOWS THE ISSUER TO SET, TEST OR CANCEL      * 01450000
.*    UP TO 16 REAL TIME INTERVALS.  AT THE TIME THE INTERVAL IS      * 01500000
.*    ESTABLISHED, THE CALLER MAY OPTIONALLY SPECIFY AN EXIT ROUTINE  * 01550000
.*    TO BE GIVEN CONTROL ASYNCHRONOUSLY AFTER THE TIME INTERVAL      * 01583300
.*    EXPIRES OR THAT EXECUTION OF THE CURRENT TASK IS TO BE          * 01633300
.*    SUSPENDED.                                                      * 01683300
.*                                                                    * 01750000
.*    AN ERROR EXIT MAY ALSO BE SPECIFIED WHICH MAY BE GIVEN CONTROL  * 01800000
.*    IF THE STIMERM FUNCTION CANNOT BE PERFORMED.                    * 01850000
.*                                                                    * 01900000
.* OPERATION =                                                        * 01950000
.*                                                                    * 02000000
.*   TYPE can be SET, TEST, or CANCEL. The explanation of each       *  02025000
.*   request and valid keywords follows:                              * 02050000
.*                                                                    * 02075000
.* SET                                                                * 02100000
.*                                                                    * 02150000
.*   This indicates a request to establish a REAL time interval.      * 02200000
.*                                                                    * 02300000
.*,ID=stor addr                   RX-type address or register(2)-(12) * 02350000
.*   specifies the address of a 4-byte storage area in which the      * 02400000
.*   identifier assigned by the timer services to this request will be* 02450000
.*   returned.                                                        * 02500000
.*                                                                    * 02550000
.*  ,BINTVL=stor addr             RX-type address or register(2)-(12) * 02600000
.*  ,DINTVL=stor addr             RX-type address or register(2)-(12) * 02650000
.*  ,LT=stor addr                 RX-type address or register(2)-(12) * 02675000
.*  ,GMT=stor addr                RX-type address or register(2)-(12) * 02700000
.*  ,MICVL=stor addr              RX-type address or register(2)-(12) * 02750000
.*  ,TOD=stor addr                RX-type address or register(2)-(12) * 02800000
.*  ,TUINTVL=stor addr            RX-type address or register(2)-(12) * 02850000
.*                                                                    * 02900000
.*  specifies the storage address and format of the time interval:    * 02950000
.*                                                                    * 03000000
.*  For BINTVL, the address of a 4-byte storage area containing the   * 03050000
.*  time interval. The time interval is represented as an unsigned    * 03100000
.*  32-bit binary number; the low-order bit has a value of 0.01       * 03150000
.*  second.                                                           * 03200000
.*                                                                    * 03250000
.*  For DINTVL, the address of an 8-byte storage area containing the  * 03300000
.*  time interval.  The time interval is represented as zoned decimal * 03350000
.*  digits of the form:                                               * 03400000
.*                                                                    * 03500000
.*  HHMMSSth, where:                                                  * 03550000
.*                                                                    * 03600000
.*  HH  is hours (24-hour clock)                                      * 03650000
.*  MM  is minutes                                                    * 03700000
.*  SS  is seconds                                                    * 03750000
.*  t   is tenths of seconds                                          * 03800000
.*  h   is hundredths of seconds                                      * 03850000
.*                                                                    * 03900000
.*  LT, or Local Time.                                                * 03907100
.*  The address is an 8-byte storage area containing the time of day  * 03914200
.*  at which the interval is to be completed.  The time of day is     * 03921300
.*  represented as zoned decimal digits of the form HHMMSSth, as      * 03928400
.*  described above under DINTVL.                                     * 03935500
.*                                                                    * 03942600
.*  For GMT, the address is an 8-byte storage area containing the     * 03950000
.*  Greenwich mean time at which the interval is to be completed.  The* 04000000
.*  time is represented as zoned decimal digits of the form HHMMSSth, * 04050000
.*  as described above under DINTVL.                                  * 04100000
.*                                                                    * 04150000
.*  For MICVL, the address is an 8-byte storage area containing the   * 04200000
.*  time interval.  The time interval is represented as an unsigned   * 04250000
.*  64-bit binary number; bit 51 is the low-order bit of the interval * 04300000
.*  value and equivalent to 1 microsecond.                            * 04350000
.*                                                                    * 04450000
.*  TOD, or Time of Day. (Same as LT above. The use of this keyword   * 04500000
.*  is not encouraged, it is maintained only for compatibility.)      * 04550000
.*                                                                    * 04750000
.*  For TUINTVL, the address is a 4-byte storage area containing the  * 04800000
.*  time interval.  The time interval is represented as an unsigned   * 04850000
.*  32-bit binary number; the low-order bit has a value of one timer  * 04900000
.*  unit (approximately 26.04166 microseconds).                       * 04950000
.*                                                                    * 05050000
.*  Note:                                                             * 05083300
.*  For DINTVL, GMT, LT, and TOD parameters, the zoned decimal        * 05116600
.*  digits are not checked for validity.  Thus, the specification of  * 05150000
.*  invalid digits can result in an ABEND 0C7, or a time interval     * 05200000
.*  different from that desired.                                      * 05250000
.*                                                                    * 05350000
.*  ,EXIT=exit rtn addr                                               * 05400000
.*                                                                    * 05450000
.*  specifies the address of a routine to be given asynchronous       * 05500000
.*  control after the requested timer interval expires. If WAIT=YES is* 05550000
.*  specified, then the EXIT= parameter must not be specified. The    * 05600000
.*  specified exit routine will be entered in the AMODE of the caller.* 05650000
.*                                                                    * 05750000
.*                                                                    * 05775000
.*  ,PARM=stor addr                                                   * 05800000
.*                                                                    * 05850000
.*  specifies the address of a 4-byte parameter to be passed to the   * 05900000
.*  exit routine after the requested timer interval expires. PARM=stor* 05950000
.*  addr must not be specified if WAIT= YES is specified or EXIT=exit * 06000000
.*  rtn addr is not specified.                                        * 06050000
.*                                                                    * 06150000
.*  ,WAIT=YES|NO                                                      * 06200000
.*                                                                    * 06250000
.*  specifies the task should be suspended until the requested timer  * 06300000
.*  interval expires.  If WAIT=NO is coded (or is indicated by        * 06350000
.*  default), and EXIT= is not coded, then no indication of timer     * 06400000
.*  expiration is given.                                              * 06450000
.*                                                                    * 06500000
.*  EXTERNAL REFERENCES =                                             * 06550000
.*                                                                    * 06600000
.*             ROUTINES   =  IEAVRT00 VIA SVC 47                      * 06612500
.*                                                                    * 06625000
.*  REGISTER CONTENT AFTER MACRO INVOCATION =                         * 06637500
.*                                                                    * 06650000
.*  Register    0  is unpredictable                                   * 06662500
.*  Register    1  will contain the address                           * 06675000
.*                 of the STIMERM parameter list                      * 06687500
.*  Register 2-14  are restored                                       * 06700000
.*  Register   15  contains a return code                             * 06712500
.*                                                                    * 06725000
.*                                                                    * 06737500
.* TEST                                                               * 06750000
.*                                                                    * 06800000
.*  This indicates a request to return the remaining time for a       * 06850000
.*  request made using the STIMERM SET option.                        * 06900000
.*                                                                    * 07000000
.* ,ID=addr                       RX-type address or register(2)-(12) * 07050000
.*                                                                    * 07100000
.*  specifies the address of a 4-byte storage area containing the     * 07150000
.*  identifier assigned by the timer services to a particular timer   * 07200000
.*  request.                                                          * 07250000
.*                                                                    * 07300000
.*  ,TU=stor addr                 RX-type address or register(2)-(12) * 07350000
.*  ,MIC=stor addr                RX-type address or register(2)-(12) * 07400000
.*                                                                    * 07450000
.*  specifies that the remaining time in the interval be returned:    * 07500000
.*                                                                    * 07550000
.*  For TU, the time is returned to the specified 4-byte area in      * 07583300
.*  storage as an unsigned 32-bit binary number.  The low-order bit is* 07633300
.*  approximately 26.04166 microseconds (one timer unit).             * 07700000
.*                                                                    * 07750000
.*  For MIC, the time is returned in microseconds, with bit 51        * 07800000
.*  equivalent to one microsecond.  The stor addr is the 8-byte       * 07833300
.*  storage area where the remaining interval is to be returned.      * 07866600
.*                                                                    * 07900000
.*                                                                    * 08150000
.*                                                                    * 08250000
.*  EXTERNAL REFERENCES =                                             * 08254100
.*                                                                    * 08258200
.*             ROUTINES   =  IEAVRT00 VIA SVC 46                      * 08262300
.*                                                                    * 08266400
.*                                                                    * 08270500
.*  REGISTER CONTENT AFTER MACRO INVOCATION =                         * 08274600
.*                                                                    * 08278700
.*  Register    0  will contain the address of the                    * 08280700
.*                 STIMERM TEST parameter list                        * 08282700
.*  Register    1  unpredictable                                      * 08284700
.*  Register 2-14  are restored                                       * 08286900
.*  Register   15  contains a return code                             * 08291000
.*                                                                    * 08295100
.* CANCEL                                                             * 08300000
.*                                                                    * 08350000
.*  This indicates a request to cancel and optionally return the      * 08400000
.*  remaining time for a STIMERM time request.                        * 08450000
.*                                                                    * 08550000
.* ,ID=addr|ALL                                                       * 08600000
.*                                                                    * 08650000
.*  specifies the address of a 4-byte storage area containing the     * 08700000
.*  identifier assigned by the timer service to a particular timer    * 08750000
.*  request.  ALL will result in all the current TASK's timer requests* 08800000
.*  established by STIMERM SET being cancelled. If ALL is specified,  * 08850000
.*  no remaining time interval is returned.                           * 08900000
.*                                                                    * 08950000
.*  If ALL is specified for the ID= parameter, then neither TU nor MIC* 09000000
.*  may be specified.                                                 * 09050000
.*                                                                    * 09100000
.*  If the STIMERM CANCEL specifies (via ID=ALL or ID=addr) requests    09106200
.*  that were established with the WAIT=YES parameter, those time     * 09112400
.*  intervals will not be cancelled, and the task will not be taken   * 09118600
.*  out of the wait condition.                                        * 09124800
.*                                                                    * 09131000
.*                                                                    * 09137200
.*                                                                    * 09143400
.*  ,TU=stor addr                 RX-type address or register(2)-(12) * 09150000
.*  ,MIC=stor addr                RX-type address or register(2)-(12) * 09200000
.*                                                                    * 09250000
.*  specifies that the remaining time in the interval be returned:    * 09300000
.*                                                                    * 09350000
.*  For TU, the time is returned to the specified 4-byte area in      * 09383300
.*  storage as an unsigned 32-bit binary number.  The low-order bit is* 09433300
.*  approximately 26.04166 microseconds (one timer unit).             * 09500000
.*                                                                    * 09550000
.*                                                                    * 09700000
.*  For MIC, the time is returned in microseconds, with bit 51        * 09740000
.*  equivalent to one microsecond.  The stor addr is the 8-byte       * 09780000
.*  storage area where the remaining interval is to be returned.      * 09820000
.*                                                                    * 09860000
.*  EXTERNAL REFERENCES =                                             * 09900000
.*                                                                    * 09950000
.*             ROUTINES   =  IEAVRT00 VIA SVC 46                      * 10000000
.*                                                                    * 10050000
.*                                                                    * 10056200
.*  REGISTER CONTENT AFTER MACRO INVOCATION =                         * 10062400
.*                                                                    * 10068600
.*  Register    0  will contain the address of the                    * 10072700
.*                 STIMERM CANCEL parameter list                      * 10076800
.*  Register 2-14  are restored                                       * 10081000
.*  Register   15  contains a return code                             * 10087200
.*                                                                    * 10093400
.* GENERAL OPTIONS (Available to SET, TEST & CANCEL):                 * 10100000
.*                                                                    * 10150000
.*  ,ERRET=err rtn addr           RX-type address or register(2)-(12) * 10200000
.*                                                                    * 10250000
.*  specifies the address of the routine to be given control when the * 10300000
.*  STIMERM function cannot be performed.  If this parameter is       * 10350000
.*  omitted, and an error is encountered, the STIMERM issuer will be  * 10400000
.*  abnormally terminated.  The specified error routine will be       * 10450000
.*  entered in the AMODE of the STIMERM invoker.                      * 10500000
.*                                                                    * 10550000
.*  ,MF=L | MF=(E,ctrl addr)                                          * 10600000
.*                                                                    * 10650000
.*  cntrl addr: RX-type address or register(0),(2)-(12) for TEST      * 10657300
.*                                                      & CANCEL      * 10664600
.*                                 register(1)-(12) for SET           * 10672000
.*                                                                    * 10683200
.*  specifies either the list form macro, or an execute form using a  * 10710300
.*  remote problem program parameter list.  If MF=L or MF=(E,cntrl    * 10737400
.*  addr) is not specified, then the default standard form of the     * 10764500
.*  macro is expanded.  If MF=L is specified, the only keyword allowed* 10791600
.*  is RELATED=.  If cntrl addr is specified as general register 1 in * 10818700
.*  the form (1) for the SET option, a one instruction savings in the * 10845800
.*  STIMERM SET macro expansion will result.                          * 10872900
.*                                                                    * 10900000
.*  ,RELATED=value                                                    * 10950000
.*                                                                    * 11000000
.*  specifies information used to self document macro instructions by * 11009300
.*  'relating' functions or services to corresponding functions or    * 11018600
.*  services.  The format and contents of the information specified   * 11027900
.*  are at the discretion of the user, and may be any valid macro     * 11037200
.*  keyword expression.                                               * 11046500
.*                                                                    * 11055800
.*                                                                    * 11074400
.*                                                                    * 11130200
.* MACLIB = AMACLIB                                                   * 11136800
.*                                                                    * 11143400
.* CHANGE-ACTIVITY =                                                  * 11150000
.*                                                                    * 11200000
.* COMPONENT = TIMER (SC1CV)                                          * 11216600
.*                                                                    * 11233200
.*   $D0=DCR0047  JBB2125  830527  PD16FH:  SET TIMER MULTIPLE TQE    * 11250000
.*                                          SUPPORT                   * 11300000
.*   $P1=PAJ0263  JBB2125  830905  PD16FH:  MNOTE IF 'PARM' OPTION    * 11314200
.*                                          SPECIFIED WITH NO EXIT    * 11328400
.*   $P2=PAJ0264  JBB2125  830905  PD16FH:  SET ERROR FLAG IF 'TU'    * 11342600
.*                                          SPECIFIED FOR STIMERM SET * 11356800
.*   $P3=PAJ0266  JBB2125  830905  PD16FH:  HANDLE STIMERM CANCEL     * 11371000
.*                                          WITHOUT 'TU' OR 'MIC'     * 11385200
.*   $L1=CLOCK    HBB4410  880411  PD16LD:  Local Time (LT)           * 11388900
.*   $D1=DCR1006  HBB4410  880819  PD16CU:  ETR support               * 11392600
.*                                                                    * 11396300
.********************************************************************** 11400000
*        MACDATE = 08/19/88                                           * 11450000
         LCLB  &ERRORS            ERROR FLAG                            11500000
         LCLA  &LVL               USED AS STIMERM LEVEL INDICATOR       11625000
         LCLC  &FLAGS             USED TO GENERATE FLAG BITS            11637500
         LCLC  &A                 WORKING NAME FOR INTERVAL FIELD       11650000
         LCLC  &SETID             WORKING NAME FOR ID FIELD             11666600
         LCLC  &SETEXIT           WORKING NAME FOR EXIT ADDRESS FIELD   11683200
         LCLC  &GNAME             GENERATED PARAMETER LIST NAME         11700000
         LCLC  &GLNAME            GENERATED NAME FOR END OF LIST        11712500
         LCLC  &BB                STRINGS FOR MNOTES                    11715600
         LCLC  &DD                MNOTE INVOCATION                      11718700
         LCLC  &UU                STRINGS FOR MNOTE GENERATION          11721800
         LCLA  &LENGTH1           LENGTH OF "SET" LIST                  11725000
         LCLA  &LENGTH2           LENGTH OF "TEST"/"CANCEL" LIST        11737500
         LCLA  &UNITS             No. OF INTERVAL KEYWORDS SPECIFIED    11763500
.**************************************************************         11789500
.**                                                          **         11815500
.**    PARAMETER VERIFICATION AND MNOTE GENERATION SECTION   **         11841500
.**                                                          **         11867500
.**************************************************************         11893500
&LENGTH1 SETA  24                  LENGTH OF "SET" PARM LIST            11920000
&LENGTH2 SETA  16                  LENGTH OF "TEST"/"CANCEL" PARM LIST  11940000
&LVL     SETA  1                   STIMERM LEVEL INDICATOR              11960000
.*                                GENERATE LABEL                        11964000
         AIF  ('&MF' EQ 'L').NONAME  LIST FORM? DON'T GEN NAME HERE     11966000
&NAME    DS    0H                 STIMERM INVOCATION                    11968000
.NONAME  ANOP                                                           11970000
&GNAME   SETC  'IHB'.'&SYSNDX'                                          11972000
&GLNAME  SETC  'IHBL'.'&SYSNDX'    END OF LIST                          11974600
&FLAGS   SETC  '00000000'                 INIT FLAG BYTE STRING         11977200
.*                                 SET LOCAL BITS ACCORDING TO INPUT    11980000
.*  SET LOCAL CHARACTER STRINGS FOR "ID" AND "EXIT" FIELDS              12030000
&SETID   SETC  '&ID'                                                    12080000
&SETEXIT SETC  '&EXIT'                                                  12130000
.*                                VERIFY "TYPE" SPECIFICATION           12707400
         AIF ('&TYPE' EQ 'SET').VERIFYU                                 12712300
         AIF ('&TYPE' EQ 'TEST').VERIFYU                                12717200
         AIF ('&TYPE' EQ 'CANCEL').VERIFYU                              12722100
         MNOTE 12,'(&TYPE) IS NOT VALID. TYPE MUST BE ''SET'' ''TEST'' X12729500
               OR ''CANCEL'' '                                     @L1C 12736900
         MEXIT                    EXIT FROM MACRO                       12744400
.*       VERIFY "SET" TIMER INTERVAL UNIT SPECIFICATIONS                12751800
.VERIFYU ANOP                                                           12759200
         AIF  ('&DINTVL' EQ '').VBIN                                    12766600
&UU      SETC  'DINTVL'                   UPDATE MNOTE STRING           12774000
&A       SETC  '&DINTVL'                  SET INSTRUCTION GEN STRING    12781400
&FLAGS   SETC  '00110000'                 INIT FLAG BYTE STRING         12788800
&UNITS   SETA  1                                                        12796200
.*                                                                      12799900
.VBIN    AIF  ('&BINTVL' EQ '').VTUIN                                   12803600
&UU      SETC  '&UU'.' BINTVL'                                          12811000
&A       SETC  '&BINTVL'                                                12818400
&FLAGS   SETC  '00010000'                                               12825800
&UNITS   SETA  &UNITS+1                                                 12833200
.*                                                                      12836900
.VTUIN   AIF  ('&TUINTVL' EQ '').VTOD                                   12840600
&UU      SETC  '&UU'.' TUINTVL'                                         12848000
&A       SETC  '&TUINTVL'                                               12855400
&FLAGS   SETC  '00000000'                                               12862800
&UNITS   SETA  &UNITS+1                                                 12870200
.*                                                                      12875100
.VTOD    AIF  ('&TOD' EQ '').VLT                                   @L1C 12880000
&UU      SETC  '&UU'.' TOD'                                             12885000
&A       SETC  '&TOD'                                                   12892400
&FLAGS   SETC  '01110000'                                               12899800
&UNITS   SETA  &UNITS+1                                                 12907200
.*                                                                      12908800
.VLT     AIF  ('&LT' EQ '').VMICVL        LT is the same as TOD    @L1A 12910400
&UU      SETC  '&UU'.' LT'                                         @L1A 12912000
&A       SETC  '&LT'                                               @L1A 12913600
&FLAGS   SETC  '01110000'                                          @L1A 12915200
&UNITS   SETA  &UNITS+1                                            @L1A 12916800
.*                                                                      12918400
.VMICVL  AIF  ('&MICVL' EQ '').VGMT                                @D1C 12920000
&UU      SETC  '&UU'.' MICVL'                                           12922000
&A       SETC  '&MICVL'                                                 12929400
&FLAGS   SETC  '00100000'                                               12936800
&UNITS   SETA  &UNITS+1                                                 12944200
.*                                                                      12945100
.VGMT    AIF  ('&GMT' EQ '').VTU                                        12951600
&UU      SETC  '&UU'.' GMT'                                             12959000
&A       SETC  '&GMT'                                                   12966400