         MACRO                                                          00050000
&NAME    STLINENO &LINE=,&LINELOC=,&MODE=OFF,&CLEAR=NO    PROTOTYPE     00100000
.********************************************************************** 00150000
.*                                                                    * 00200000
.* STATUS - CHANGE LEVEL 000                                          * 00250000
.*                                                                    * 00300000
.* NAME - STLINENO   (SET LINE NUMBER FOR NEXT TPUT EDIT TO 3270)     * 00350000
.*                                                                    * 00355000
.*      COPYRIGHT = LICENSED MATERIALS - PROPERTY OF IBM              * 00360000
.*                                                                    * 00365000
.*                  "RESTRICTED MATERIALS OF IBM"                     * 00370000
.*                                                                    * 00375000
.*                  5695-117                                          * 00380000
.*                                                                    * 00385000
.*                  (C) COPYRIGHT IBM CORP. 1979                      * 00390000
.*                                                                    * 00395000
.*                                                                    * 00400000
.* FUNCTION - THE STLINENO MACRO IS USED TO SPECIFY ON WHICH LINE OF  * 00450000
.*            A TSO/VTAM DISPLAY SCREEN THE NEXT NON-FULL SCREEN TPUT * 00500000
.*            IS TO APPEAR.                                           * 00550000
.*                                                                    * 00600000
.*       THE MACRO PROTOTYPE IS ABOVE                                 * 00650000
.*                                                                    * 00700000
.*       THE STANDARD FORM OF THE EXPANSION IS BELOW                  * 00750000
.*                                                                    * 00800000
.*&NAME  LA    1,3                      PUT LINE NUM IN PARM REG      * 00850000
.*       LA    0,19                     LOAD ENTRY CODE               * 00900000
.*       SLL   0,24                     SHIFT TO HIGH ORDER BYTE      * 00950000
.*       SVC   94                       TERMINAL CONTROL MACRO SVC    * 01000000
.*                                                                    * 01050000
.* CHANGE ACTIVITY -                                                  * 01062500
.*   APAR OZ73481                                                     * 01075000
.*                                                                    * 01076100
.*                                                                    * 01077200
.*  $MAC(STLINENO),COMP(TSO/VTAM),PROD(VTAM): SET LINE NUMBER FOR     * 01078300
.*                                            NEXT TPUT EDIT          * 01079400
.*                                                                    * 01080500
.*  FLAG REASON   RELEASE DATE   ORIGIN  FLAG DESCRIPTORS             * 01081600
.*  ---- -------- ------- ------ ------  -----------------------------* 01082700
.*  $01= OY68032  EMERALD 940106 226653: New Function to clear the    * 01083800
.*                                       screen using STLINENO equal  * 01084900
.*                                       to 1 with CLEAR=YES          * 01086000
.*                                                                    * 01087500
.********************************************************************** 01100000
         AIF   ('&LINE' NE '' AND '&LINELOC' NE '').ERROR1              01150000
         AIF   ('&LINE' EQ '' AND '&LINELOC' EQ '').ERROR2              01200000
         AIF   ('&MODE' NE 'OFF' AND '&MODE' NE 'ON').ERROR1            01250000
         AIF   ('&CLEAR' NE 'YES' AND '&CLEAR' NE 'NO').ERROR1    @01A  01275000
         AIF   ('&LINELOC' NE '').LNADDR                                01300000
         AIF   ('&LINE'(1,1) EQ '(').LNREG                              01350000
&NAME    LA    1,&LINE                  PUT LINE NUM IN PARM REG        01400000
         AGO   .STMODE                                                  01450000
.LNREG   ANOP                                                           01500000
&NAME    LR    1,&LINE(1)               PUT LINE NUM IN PARM REG        01550000
         AGO   .STMODE                                                  01600000
.LNADDR  ANOP                                                           01650000
         AIF   ('&LINELOC'(1,1) EQ '(').LNADREG                         01700000
&NAME    L     1,&LINELOC               PUT LINE NUM IN PARM REG        01750000
         AGO   .STMODE                                                  01800000
.LNADREG ANOP                                                           01850000
&NAME    L     1,0(,&LINELOC(1))        PUT LINE NUM IN PARM REG        01900000
.STMODE  ANOP                                                           01950000
         AIF   ('&MODE' EQ 'OFF').STMDOFF                               02000000
         LA    0,128                    PREPARE FLAY BYTE               02050000
         SLL   0,24                     SHIFT TO HIGH ORDER BYTE        02100000
         OR    1,0                      SET MODE=ON FLAG IN REG 1       02150000
         AGO   .STCLEAR                 GO TO STCLEAR              @01C 02200000
.STMDOFF ANOP                                                           02250000
         LA    1,0(1)                   SET MODE=OFF FLAG IN REG 1      02300000
.STCLEAR ANOP                                                      @01A 02312500
         AIF   ('&CLEAR' EQ 'NO').ENTRYCD                          @01A 02325000
         LA    0,64                     PREPARE FLAG BYTE          @01A 02337500
         SLL   0,24                     SHIFT TO HIGH ORDER BYTE        02350000
.*                                                                 @01A 02362500
         OR    1,0                      SET CLEAR=YES FLAG IN REG 1     02375000
.*                                                                 @01A 02387500
.ENTRYCD ANOP                                                           02400000
         LA    0,19                     LOAD ENTRY CODE                 02450000
         SLL   0,24                     SHIFT TO HIGH ORDER BYTE        02500000
         SVC   94                       TERMINAL CONTROL MACRO SVC      02550000
         MEXIT                                                          02600000
.ERROR1  IHBERMAC 54,,,                                                 02650000
         MEXIT                                                          02700000
.ERROR2  IHBERMAC 24,,,                                                 02750000
         MEND                                                           02800000
