*/*                                                                     00000800
*********************************************************************** 00001600
*PROPRIETARY V3 STATEMENT                                               00003800
*LICENSED MATERIALS - PROPERTY OF IBM                                   00006000
*"RESTRICTED MATERIALS OF IBM"                                          00008200
*5695-DF1                                                               00010400
*(C) COPYRIGHT 1991,1993  IBM CORP.                                     00012600
*END PROPRIETARY V3 STATEMENT                                           00014800
*********************************************************************** 00017600
         MACRO                                                          00020000
&NAME    STOW  &DCB,&AREA,&TYP                                          00040000
         AIF   ('&DCB' EQ '').ERR1                                      00060000
.D1      AIF   ('&AREA' EQ '' AND '&TYP' NE 'I').ERR2                   00068000
.D2      AIF   ('&TYP' NE '' AND '&TYP' NE 'A' AND '&TYP' NE 'C' AND   *00076000
               '&TYP' NE 'D' AND '&TYP' NE 'R' AND '&TYP' NE 'I' AND   *00081300
               '&TYP' NE 'DISC').ERR3                                   00086600
         AIF   ('&DCB' EQ '' OR ('&AREA' EQ '' AND '&TYP' NE 'I')).MEND 00092000
&NAME    IHBINNRA &DCB,&AREA                                            00100000
         AIF   ('&TYP' EQ '' OR '&TYP' EQ 'A').ISVC                     00120000
         AIF   ('&TYP' EQ 'DISC').DISC                                  00125000
         AIF   ('&TYP' EQ 'I').SR00                                     00130000
         AIF   ('&TYP' NE 'R').TSTD                                     00140000
         AGO   .LCR1                                                    00144400
.DISC    LR    15,0                              TO BE USED AS BASE REG 00148800
         STCM  1,B'0111',5(15)                   STORE DCB ADR IN LIST  00153200
         XC    2(3,15),2(15)                     CLEAR FUNC & RESERVED  00157600
         OI    2(15),X'80'                       INDICATE TYPE DISC     00162000
         SR    1,1                               INDICATE LIST INPUT    00166400
         AGO   .ISVC                                                    00170800
.LCR1    LCR   1,1                               INDICATE TYPE R        00175200
         AGO   .ISVC                                                    00180000
.SR00    SR    0,0                               NO PARMLIST FOR TYPE I 00186600
         AGO   .ISVC                                                    00193200
.TSTD    AIF   ('&TYP' NE 'D').TSTC                                     00200000
         LCR   0,0                               INDICATE TYPE D        00220000
         AGO   .ISVC                                                    00240000
.TSTC    LCR   1,1                               INDICATE TYPE C        00250000
         LCR   0,0                                                      00260000
.ISVC    SVC   21                                ISSUE STOW SVC         00270000
         MEXIT                                                          00300000
.ERR1    IHBERMAC 6                                                     00320000
         AGO   .D1                                                      00340000
.ERR2    IHBERMAC 13                                                    00360000
         AGO   .D2                                                      00370000
.ERR3    IHBERMAC 48,,&TYP                                              00380000
.MEND    MEND                                                           40380000
* */%STOW: MACRO KEYS(0:1(DCB_NAME,DCB_ADDR),0:1(AREA_NAME,AREA_ADDR),  40430000
*                     RETCODE,RSNCODE,TYPE_STOW);                       40480000
* ANS('?'||MACLABEL||' STOWP '||MACKEYS||';') RESCAN SKIP;              40530000
* %END STOW;                                                            40580000
