*%/*                                                                    00050000
         MACRO                                                          00100000
&NAME    SVCUPDTE &SVC,&FUNC,&TYPE=,&EP=,&LOCKS=,&NPRMPT=,&MF=,        -00150000
               &APF=,&AR=,&EPNAME=,&RELATED=,&ESR=,&USEECVT=NO     @L4C 00200000
.********************************************************************** 00250000
.*  START OF SPECIFICATIONS ***                                       * 00300000
.*                                                                    * 00550000
.*01* MACRO-NAME = SVCUPDTE                                           * 00600000
.*                                                                    * 00650000
.*01* DYNAMIC SVC TABLE ENTRY UPDATE MACRO                            * 00668900
.*                                                                    * 00687800
.*01* COPYRIGHT =                                                 @L3C* 00706700
.*                                                                    * 00725600
.*        LICENSED MATERIALS - PROPERTY OF IBM                        * 00744500
.*        THIS MACRO IS "RESTRICTED MATERIALS OF IBM"                 * 00763400
.*        5647-A01 (C) COPYRIGHT IBM CORP. 1981, 2000                 * 00782300
.*                                                                    * 00801200
.*01* STATUS = HBB7703                                            @L3C* 00808700
.*                                                                    * 00816200
.*01* EXTERNAL CLASSIFICATION: PI                                     * 00823700
.*01* END OF EXTERNAL CLASSIFICATION:                                 * 00831200
.*                                                                    * 00839000
.*01* FUNCTION -                                                      * 00857900
.*      GENERATE LINKAGE AND/OR PARAMETER LIST FOR SVC TABLE UPDATE   * 00876800
.*      SERVICE (IEAVESTU)                                            * 00895700
.*                                                                    * 00914600
.*01* OPERATION-                                                      * 00933500
.*      THE INDIVIDUAL PARAMETERS ARE CHECKED AS APPROPRIATE TO THE   * 00952400
.*         TYPE OF MF PARAMETER USED                                  * 00971300
.*      IF THERE ARE NO FATAL ERRORS THEN THE APPROPRIATE CODE IS     * 00990200
.*         GENERATED                                                  * 01009100
.*                                                                    * 01028000
.*01* DEPENDENCIES-                                                   * 01046900
.*      THE FOLLOWING MACROS MUST BE INCLUDED IN THE SOURCE PROGRAM   * 01065800
.*      CVT    - TO MAP THE FIELD CVTNUCLU                            * 01084700
.*      EPILOG - TO DECLARE REGISTER VARIABLES (PLS ONLY)             * 01103600
.*      IHAPSA - TO SUPPLY CVT BASE                                   * 01122500
.*      IHAECVT - FOR ECVTESTU (OS/390 R6 ONLY)                       * 01131900
.*      NUCLKUP- TO FIND THE SVC UPDATE SERVICE ENTRY POINT (IEAVESTU)* 01141400
.*                                                                    * 01160300
.*      THE PARAMETER LIST MUST BE WRITABLE TO UPDATE THE SVC ENTRY   * 01179200
.*      POINT FIELD FOR THE EXECUTE FORM                              * 01198100
.*                                                                    * 01217000
.*01* CHANGE-ACTIVITY=                                                * 01220100
.*                                                                    * 01223200
.*  OY11662 - GENERATE A VERSION 2 PARAMETER LIST ONLY WHEN EXTRACT   * 01224100
.*            OR EPNAME ARE SPECIFIED. OTHERWISE, GENERATE A          * 01225000
.*            VERSION 1 PARAMETER LIST.                       @YA11662* 01225900
.*                                                                    * 01226800
.*  $L1=IOGEN    JBB2220   840813  PD16FH: IOGEN RESTRUCTURE          * 01227800
.*  $L2=PLAS     JBB2220   840813  PD16FH: PLAS CHANGES               * 01230100
.*  $P1=PA20113  JBB2220   850211  PD16FH: ACCEPT ATTRIBUTE OPTION ON * 01230900
.*                                         PLAS LIST FORM             * 01231700
.*  $P2=PA20140  JBB2220   850417  PD16FH: FIX MNOTES                 * 01232100
.*  $P3=PA20437  JBB2220   851014  PD16FH: AUTOMATIC ATTRIBUTE SUPPORT* 01232300
.*  $P4=PA20544  JBB2220   851014  PD16FH: CLEANUP/IMPROVE MNOTES     * 01232400
.*  $P5=PA21193  JBB2220   860903  PD16FH: DELETE LINE THAT RESETS    * 01233200
.*                                         FUNCTION FROM "EXTRACT"    * 01234000
.*  $L3=AR       HBB3310   850925  PD16FH: ACCESS REGISTERS           * 01234400
.*  OY34751 - ADD EQUAL SIGN (=) TO RELATED PARAMATER SO THAT @YA34751* 01234500
.*            IT IS AN ACCEPTABLE PARAMETER.                  @YA34751* 01234600
.*  $L4=64BITSUP HBB7703 981204 PD00XB: ESAME                         * 01234700
.*  $P6=PXDXXXX  HBB7703 990525 PD00XB: DELETE STATIC MF=L            * 01235100
.*                                                                    * 01235500
.*02* INPUT -                                                         * 01235900
.*       APF      AUTHORIZATION CODE FOR THE SVC                      * 01254800
.*       AR       SVC MAY BE ISSUED IN ACCESS REGISTER MODE       @L3A* 01264200
.*       EP       POINTER DEFINED ENTRY POINT ADDRESS                 * 01273700
.*       FUNC     IS THE OPERATION TO PERFORM                         * 01292600
.*       LOCKS    LOCKS TO BE OBTAINED FOR SVC                        * 01311500
.*                   TYPE 1 LOCKS DEFAULT TO                          * 01330400
.*                      HAVING THE LOCAL LOCK                         * 01350000
.*                   TYPE 3 + 4 MAY NOT HAVE ANY GLOBAL               * 01383300
.*                      SPIN LOCKS                                @L1C* 01416600
.*                   TYPE 6 MAY NOT HAVE LOCKS                        * 01450000
.*                                                                    * 01460900
.*       MF       TYPE OF SVCUPDTE MACRO                              * 01471800
.*                  MF=(E,ADDR) EXECUTABLE                            * 01482700
.*                    =L        PARAMETER LIST                        * 01493600
.*                     STANDARD COMBINED LIST AND EXECUTABLE FORM     * 01504500
.*       NPRMPT   NON-PREEMPTIVE SVC                                  * 01515400
.*       RELATED  USER COMMENT                                        * 01526300
.*       SVC      IS THE SVC NUMBER WHOSE TABLE ENTRY IS TO BE        * 01537200
.*                MODIFIED                                            * 01548100
.*       TYPE     SVC TYPE                                            * 01559000
.*                                                                    * 01569900
.*    TOKEN            VALUE RANGE                                    * 01580800
.*    -----            -----------                                    * 01591700
.*     APF              YES,NO                                        * 01602600
.*     AR               YES,NO                                    @L3A* 01608000
.*     EP               POINTER-DEFINED ENTRY POINT ADDRESS       @L1C* 01613500
.*     FUNC          REPLACE,DELETE,EXTRACT,EXTRACTANY            @L4C* 01624400
.*     LOCKS    (LOCAL,DISP,SRM,CMS,SALLOC)                   @ZMC3226* 01635300
.*     NPRMPT           YES,NO                                        * 01646200
.*     SVC              0-255                                         * 01657100
.*     TYPE             1-6                                           * 01668000
.*     EPNAME           1-8 CHARACTER NAME                        @L1A* 01673400
.*                                                                    * 01678900
.*    TOKEN          MF=E            MF=L         MF=STANDARD         * 01689800
.*    -----          ----            ----         -----------         * 01700700
.*     APF           ERROR            OK              OK              * 01711600
.*     AR            ERROR            OK              OK          @L3A* 01717000
.*     EP OR EPNAME   OK**            OK**         MANDATORY+     @L1C* 01722500
.*     FUNC          ERROR         MANDATORY       MANDATORY          * 01733400
.*     LOCKS         ERROR            OK              OK              * 01744300
.*     NPRMPT        ERROR            OK              OK              * 01755200
.*     RELATED      OPTIONAL       OPTIONAL         OPTIONAL          * 01766100
.*     SVC            OK*             OK*          MANDATORY          * 01777000
.*     TYPE          ERROR         MANDATORY       MANDATORY          * 01787900
.*                                                                    * 01798800
.*             + - TYPE 5 SVC ARE NOT ALLOWED TO HAVE AN ENTRY POINT  * 01809700
.*                                                                    * 01853300
.*             * - EITHER THE MF=L OR THE MF=E VERSION MUST SUPPLY    * 01856000
.*                 THIS PARAMETER OR ELSE THE REQUEST WILL BE REJECTED* 01858700
.*                 BY IEAVESTU                                        * 01861400
.*                                                                    * 01864200
.*             **- EITHER THE MF=L OR THE MF=E VERSION MUST SUPPLY ONE* 01865500
.*                 OF THESE PARAMETERS OR THE REQUEST WILL BE REJECTED* 01866800
.*                 BY IEAVESTU                                    @L1A* 01868100
.*                                                                    * 01869600
.*             NOTE - IF 'EXTRACT' IS SPECIFIED, THE SVC NUMBER MUST  * 01870300
.*                 NOT BE SUPPLIED. STANDARD 'EXTRACT' REQUESTS MUST  * 01871000
.*                 BE CODED AS IN THE FOLLOWING EXAMPLE:              * 01871700
.*                                                                    * 01872400
.*                 SVCUPDTE ,EXTRACT,EP=MYSVC                         * 01873100
.*                                                                    * 01873800
.*02* OUTPUT -                                                        * 01875100
.*                                                                    * 01886000
.*   MF = L     - IEAVESTU PARAMETER LIST                             * 01900000
.*        E     - LINKAGE CODE TO INVOKE IEAVESTU WITH GIVEN          * 01950000
.*                PARAMETER LIST                                      * 02000000
.*        ''    - LINKAGE AND PARAMETER LIST                          * 02050000
.*                                                                    * 02058300
.*01* COMPONENT = SC1C5 (SUPERVISOR CONTROL)                      @L1A* 02066600
.*                                                                    * 02083200
.*01* DISTRIBUTION LIBRARY = AMACLIB                              @L1A* 02088800
.*                                                                    * 02094400
.*A000000-999999                                              @G860P36* 02100000
.*** END OF SPECIFICATIONS                                            * 02150000
.********************************************************************** 03000000
         ACTR    100               LIMIT LOOPING TO 100 ITERATIONS      03050000
.*                                                                      03100000
.*                                                                      03150000
.*        THE FOLLOWING DECLARES MACRO VARIABLES-                       03200000
.*            ARITHMETIC VARIABLES ARE AUTOMATICALLY SET TO ZERO        03250000
.*            CHARACTER  VARIABLES ARE SET TO THE NULL STRING           03300000
.*                                                                      03350000
         LCLA &REQLOCK,&INDEX1,&INDEX2,&TEMP,&SVCNUM,&FUNCNUM,&TYPENUM,-03450000
               &APFNUM,&NPNUM,&NCMS,&NDISP,&NLOCAL,&NSRM,&NSALLOC,&NNP,-03500000
               &NAPF,&SVCFLAG,&SVCOFF,&DELETE,&REPLACE,&EXTRACT    @L1C 03550000
         LCLA  &ARNUM,&NAR                                         @L3A 03600000
         LCLA  &ESRNUM,&ESROFF,&ESRFLAG                            @L4A 03616600
         LCLA  &EXTRACTANY                                         @L4A 03633300
.*                                                                      03650000
.*            APFNUM               APF CODE                             03654700
.*            ARNUM                AR CODE                         @L3A 03657000
.*            DELETE               FUNCTION CODE VALUE FOR DELETE       03659400
.*            EXTRACT              FUNCTION CODE VALUE FOR EXTRACT @L1A 03661700
.*            EXTRACTANY        FUNCTION CODE VALUE FOR EXTRACTANY @L4A 03662900
.*            FUNCNUM              FUNCTION NUMBER                      03664100
.*            INDEX1               GENERAL INDEX                        03668800
.*            INDEX2               GENERAL INDEX                        03673500
.*            NAPF                 VALUE OF THE APF BIT IN SVC ENTRY    03678200
.*            NAR                  VALUE OF AR BIT IN SVC ENTRY    @L3A 03680500
.*            NCMS                 VALUE OF THE CMS BIT IN SVC ENTRY    03682900
.*            NDISP                VALUE OF THE DISP BIT IN SVC ENTRY   03687600
.*            NLOCAL               VALUE OF THE LOCAL BIT IN SVC ENTRY  03692300
.*            NNP                  VALUE OF THE NON-PREMPT BIT          03697000
.*            NSRM                 VALUE OF THE SRM BIT IN SVC @ZMC3226 03700100
.*                                 ENTRY                       @ZMC3226 03703200
.*            NSALLOC              VALUE OF THE SALLOC BIT IN SVC ENTRY 03706400
.*            REPLACE              REPLACE FUNCTION CODE VALUE          03711100
.*            SVCOFF               OFFSET OF THE SVC NUMBER IN PARM     03715800
.*            ESROFF               OFFSET OF EXTENDED SVC # IN PARM     03718100
.*            NPNUM                NON-PREEMPTIBILITY CODE              03720500
.*            REQLOCK              LOCKS BYTE                           03725200
.*            SVCNUM               SVC NUMBER                           03729900
.*            ESRNUM               EXTENDED SVC PARAMETER          @L4A 03732200
.*            SVCFLAG              SVC NUMBER SUPPLIED INDICATOR        03734600
.*            ESRFLAG              ESR NUMBER SUPPLIED INDICATOR   @L4A 03736900
.*            TEMP                 TEMPORARY                            03739300
.*            TYPENUM              SVC TYPE NUMBER                      03744000
.*                                                                      03750000
         LCLC &VERSION,&CHARS,&ACHAR,&BADENT,&LAB1,&LAB2,&LAB3,&EPOFF   03800000
         LCLC &EPNOFF                                              @L1C 03850000
         LCLC &EPCHAR                                              @L1A 03866600
         LCLC &EPMSG                                               @L1A 03883200
         LCLC &INCONS      STRING FOR INCONSISTENT OPERANDS        @P4A 03887400
         LCLC &INSPEC(10)  ARRAY OF KEYWORD ATTRIBUTES             @L3C 03891600
         LCLC &BADSPEC(10) ARRAY OF KEYWORD NAMES FOR MESSAGE      @L3C 03895800
         LCLC  &EXTSVC                                             @L4A 03897900
.*                                                                      03900000
.*            ACHAR                SINGLE CHARACTER TEMPORARY           03914200
.*            BADENT               SET TO 'YES' INDICATES FATAL ERROR   03928400
.*            CHARS                MULTIPLE CHARACTER TEMPORARY         03942600
.*            EPCHAR               TEMP VARIABLE: EP OR EPNAME     @L1A 03947300
.*            EPMSG                TEMP VARIABLE: ENTRY-POINT MSG  @L1A 03952000
.*            EPOFF                OFFSET OF ENTRY POINT IN PARM LIST   03956800
.*            EPNOFF               OFFSET OF EPNAME IN PARM LIST   @L1A 03963900
.*            MACDATE              DATE MACRO LAST MODIFIED             03971000
.*            VERSION              SVCUPDTE VERSION NUMBER              03985200
.*            EXTSVC               KNOWN TO BE EXTENDED                 03992600
.*                                                                      04000000
.********************************************************************** 04007100
.*                                                                    * 04014200
.*                   INITIALIZE FOR PROCESSING                        * 04021300
.*                                                                    * 04028400
.********************************************************************** 04035500
*        MACDATE=06/23/99                                               04042600
&BADENT  SETC  'NO'                   NO ERROR DETECTED YET             04049700
&EPOFF   SETC    '4'                  OFFSET OF THE ENTRY POINT IN LIST 04063900
&EPNOFF  SETC    '12'                 OFFSET OF THE EPNAME IN LIST @L1A 04067400
&LAB1    SETC  'IHA'.'&SYSNDX'.'A'    FIRST  GENERATED LABEL            04071000
&LAB2    SETC  'IHA'.'&SYSNDX'.'B'    SECOND GENERATED LABEL            04078100
&LAB3    SETC  'IHA'.'&SYSNDX'.'C'    THIRD  GENERATED LABEL            04085200
&NAPF    SETA    8                    VALUE OF THE APF BIT IN SVC ENTRY 04092300
&NAR     SETA    4                    VALUE OF AR BIT IN SVC ENTRY @L3A 04095800
&NCMS    SETA   64                    VALUE OF THE CMS                  04099400
&NDISP   SETA    8                    VALUE OF THE DISP                 04106500
&NLOCAL  SETA  128                    VALUE OF THE LOCAL                04113600
&NNP     SETA    2                    VALUE OF THE NON-PREMPT           04120700
&NSRM    SETA   32                    VALUE OF THE SRM         @ZMC3226 04127800
&NSALLOC SETA   16                    VALUE OF THE SALLOC               04134900
&REPLACE SETA    1                    REPLACE FUNCTION CODE             04142000
&DELETE  SETA    2                    DELETE FUNCTION CODE         @L1M 04144300
&EXTRACT SETA    3                    EXTRACT FUNCTION CODE        @L1A 04146600
.*ALL FUNCTIONS OTHER THAN EXTRACT/EXTRACTANY MUST HAVE LOWER FUNCTION  04147200
.*NUMBERS THAN EXTRACT, SINCE WE TEST FOR ">="                          04147800
&EXTRACTANY SETA 4                    EXTRACTANY CODE              @L4A 04148400
&SVCOFF  SETA    3                    OFFSET OF THE SVC NUMBER IN       04149100
.*                                    THE PARAMETER LIST                04156200
&ESROFF SETA     11                   OFFSET OF THE SVC EXTENSION  @L4A 04158500
.*                                    IN THE PARAMETER LIST             04160800
&VERSION SETC   '1'                   INITIALIZE TO VERSION 1  @YA11662 04163300
.********************************************************************** 04170400
.*                                                                    * 04177500
.*                   VALIDATE MF PARAMETER                            * 04184600
.*                                                                    * 04191700
.********************************************************************** 04198800
         AIF   (T'&MF EQ 'O' OR                                        -04205900
               '&MF(1)' EQ 'E' AND N'&MF EQ 2 OR                       -04213000
               '&MF' EQ 'L' AND N'&MF EQ 1).L0020                  @L1C 04220100
.*       MSG: "INVALID MF OPERAND SPECIFIED- "                          04227200
         IHBERMAC 1001,MF,&MF                                           04234300
&BADENT  SETC  'YES'                  FATAL ERROR DETECTED              04241400
.L0020   ANOP                                                      @L1C 04250000
         AIF   ('&MF(1)' NE 'E').L0040                             @L1C 04275000
.*                                                                      04300000
.*       IS THIS AN EXECUTE FORM OF THE MACRO?                          04350000
.*          YES: MAKE SURE THERE WERE NO UNNECESSARY PARAMETERS         04400000
.*                                                                      04450000
&INSPEC(1)  SETC T'&TYPE                                           @P4A 04481200
&BADSPEC(1) SETC 'TYPE'                                            @P4A 04512400
&INSPEC(2)  SETC T'&LOCKS                                          @P4A 04543600
&BADSPEC(2) SETC 'LOCKS'                                           @P4A 04574800
&INSPEC(3)  SETC T'&NPRMPT                                         @P4A 04606000
&BADSPEC(3) SETC 'NPRMPT'                                          @P4A 04637200
&INSPEC(4)  SETC T'&APF                                            @P4A 04668400
&BADSPEC(4) SETC 'APF'                                             @P4A 04699600
&INSPEC(5)  SETC T'&AR                                             @L3A 04710000
&BADSPEC(5) SETC 'AR'                                              @L3A 04720400
.*                                                                      04730800
.* FIRST TEST IF REPLACE, DELETE, OR EXTRACT SPECIFIED                  04731200
.*                                                                      04731600
&INCONS  SETC  ''              CLEAR ERROR STRING                  @P4A 04732000
         AIF  (T'&FUNC EQ 'O').L0022    IF A FUNCTION SPECIFIED    @P4A 04732400
&INCONS  SETC '&FUNC'                   THEN MOVE TO ERROR MESSAGE @P4A 04732800
.L0022   ANOP                                                           04733200
.*                                                                      04733600
.* LOOP THROUGH INPUT DATA IN ARRAY AND FORMAT MESSAGE STRING           04734000
.*                                                                      04734400
&INDEX1  SETA 0                                                         04734800
.L0025   ANOP                                                      @L1C 04735200
&INDEX1  SETA (&INDEX1+1)                    BUMP LOOP             @P4A 04735600
         AIF  (&INDEX1 GT 5).L0034                                 @L3C 04736000
.*                                                                      04736400
.*       TEST FOR A KEYWORD SPECIFICATION                               04736800
.*         BY CHECKING ARRAY ENTRY NOT EQUAL TO "OMITTED"               04737200
.*                                                                      04737600
         AIF   ('&INSPEC(&INDEX1)' EQ 'O').L0032  TEST KEY         @P4A 04738000
.*    INCONSISTENT KEYWORD DETECTED -- PUT KEY INTO ERROR MESSAGE       04738400
         AIF   ('&INCONS' EQ '').L0030       IF NOT 1ST ERROR      @P4A 04738800
&INCONS  SETC  '&INCONS'.','.'&BADSPEC(&INDEX1)'  THEN ADD KEY     @P4A 04739200
         AGO   .L0032                                                   04739600
.L0030   ANOP                                                           04740000
&INCONS  SETC  '&BADSPEC(&INDEX1)'           ELSE ASSIGN 1ST KEY   @P4A 04740400
.L0032   ANOP                                                           04740800
         AGO   .L0025                        LOOP TILL DONE        @P4A 04741200
.*                                                                      04741600
.*       END OF TEST LOOP - PRINT MNOTE IF NECESSARY                    04742000
.*                                                                      04742400
.L0034   ANOP                                                           04742800
         AIF   ('&INCONS' EQ '').L0040                                  04743200
.*                                                                      04743600
.*       MSG: "XX,YY,ZZ OPERAND INCONSISTENT-IGNORED."                  04744000
         IHBERMAC 147,&INCONS                                           04744400
.L0040   ANOP                                                      @P4C 04744800
.*                                                                      04745200
.*  SCREEN 'EXTRACT' REQUESTS                                      @L1A 04746200
.*                                                                      04761600
         AIF   ('&FUNC' EQ 'EXTRACT').L0300A      YES: BRANCH      @L1A 04766700
         AIF   ('&FUNC' EQ 'EXTRACTANY').L0300B   YES: BRANCH      @L4A 04771800
.*                                                                      04777000
.*  CHECK FOR EXTRACT REQUEST WITH SVC PARAMETER CODED WRONG       @L1A 04784700
.*                                                                      04792400
&FUNCNUM SETA   &EXTRACT                                           @L4A 04793300
         AIF   ('&SVC' EQ 'EXTRACT').L0050A       YES: BRANCH      @L1A 04794200
&FUNCNUM SETA   &EXTRACTANY                                        @L4A 04795100
         AIF   ('&SVC' NE 'EXTRACTANY').L0050     NO: BRANCH       @L4A 04796000
.L0050A  ANOP                                                      @L4A 04796900
.*       MSG: "EXTRACT PARAMETER SPECIFIED IN WRONG POSITION."          04798100
       MNOTE 12,'EXTRACT PARAMETER SPECIFIED IN WRONG POSITION.'   @P2C 04800000
&BADENT  SETC  'YES'                      FATAL ERROR DETECTED     @L1A 04801900
         AGO   .L0440                                                   04803800
.L0050   ANOP                                                      @L1C 04805700
.********************************************************************** 04808300
.*                                                                    * 04816600
.*                   VALIDATE SVC PARAMETER                           * 04824900
.*                                                                    * 04833200
.********************************************************************** 04841500
.*                                                                      04850000
.*       IF THE SVC NUMBER IS NOT VALID INDICATE ERROR                  05050000
.*                                                                      05100000
.*            MF     OMITTED   REGISTER   SELF-DEFINING TERM DECIMAL#   05150000
.*            --     --------  --------   ------------------ --------   05200000
.*         STANDARD   ERROR       OK               OK          OK       05250000
.*            L         OK       ERROR             OK          OK       05300000
.*            E         OK        OK              ERROR       ERROR     05350000
.*                                                                      05800000
.*       IS THERE A SUB-PARAMETER LIST FOR THE SVC PARAMETER?           05801800
         AIF   (N'&SVC GT 1).L0140                  YES: ERROR     @L4M 05803600
.*                                                                      05805400
.*       IS THE SVC NUMBER SUPPLIED?                                    05807200
         AIF   (T'&SVC  NE 'O').L0060               YES: CONTINUE  @L1C 05809000
.*       THE SVC NUMBER IS OMITTED                                      05810800
&SVCFLAG SETA  1                                    REMEMBER FACT       05812600
.*       IS IT ANY CASE OTHER THAN THE MF STANDARD CASE?                05814400
         AIF   (T'&MF   NE 'O').L0200               YES: VALID     @L1C 05816200
.*       MSG: "SVC OPERAND REQUIRED, NOT SPECIFIED"                     05818000
         IHBERMAC 1006,SVC                          NO:  INVALID        05819800
&BADENT  SETC  'YES'                                                    05821600
         AGO   .L0200                                              @L1C 05823400
.*                                                                      05825200
.*       IF THIS THE REGISTER FORM OF THE SVC PARAMETER?                05827000
.L0060   AIF   ('&SVC'(1,1) NE '(').L0080      NO: TRY OTHER CASES @L1C 05828800
.*       THIS IS THE REGISTER FORM - IS IT THE RIGHT MF TYPE?           05830600
         AIF   ('&MF' NE 'L').L0200A                YES: NOT MF=L  @L4C 05832400
         AGO   .L0140                               NO:  ERROR     @L1C 05834200
.*                                                                      05836000
.*       CHECK TO SEE IF THIS IS A SELF-DEFINING TERM                   05837800
.*                                                                      05839600
.L0080   AIF   ('&SVC'(1,1) GE '0' AND '&SVC'(1,1) LE '9').L0100   @L1C 05841400
         AIF   ('&SVC'(1,1) LT 'A' OR  '&SVC'(1,1) GT 'Z').L0140   @L1C 05842300
         AIF   ('&MF(1)' EQ 'E').L0140           MF=E CASE INVALID @L1C 05843200
         AGO   .L0200A                                             @L4C 05845000
.*                                                                      05846800
.*       CHECK TO SEE IF THE SVC NUMBER IS NUMERICALLY VALID            05848600
.*                                                                      05850400
.L0100   AIF   ('&MF(1)' EQ 'E').L0140    NUMBER INVALID FOR MF=E  @L1C 05852200
&INDEX1  SETA  1                          START WITH FIRST CHARACTER    05854000
&CHARS   SETC  '&SVC(1)'                  TEMPORARY STRING         @L4C 05855800
.L0120   AIF   (K'&CHARS GT 3).L0140      TOO MANY DIGITS?         @L4C 05857600
&ACHAR   SETC  '&CHARS'(&INDEX1,1)        GET A CHARACTER FROM STRING   05859400
         AIF   ('&ACHAR' LT '0' OR '&ACHAR' GT '9').L0140  DECIMAL? @L1 05861200
&INDEX1  SETA  &INDEX1+1                  YES: INDICATE NEXT CHARACTER  05863000
         AIF   (&INDEX1 LE K'&CHARS).L0120 ALL CHARACTERS DONE?    @L1C 05864800
&SVCNUM  SETA  &CHARS                     YES: CONVERT TO NUMBER   @L4C 05866600
         AIF   (&SVCNUM GE 0 AND &SVCNUM LE 255).L0160  TOO BIG?   @L1C 05868400
.*       MSG: "INVALID SVC OPERAND SPECIFIED- "                         05870200
.L0140   IHBERMAC 1001,SVC,&SVC           YES: TELL USER           @L1C 05872000