*%/*                                                           @ZMB0481 00030000
         MACRO                                                 @ZA24619 00060000
&NAME    SYNCH &EP,&RESTORE=,&KEYADDR=,&STATE=,&MF=,&KEYMASK=, @G381P2A-00093300
               &AMODE=                                         @G860P6U 00126600
.**************************************************************@ZA24619 00160000
.*                                                            *         00165500
.* COPYRIGHT = 5647-A01                                       *         00171000
.*             THIS MODULE IS "RESTRICTED MATERIALS OF IBM"   *         00176500
.*             (C) COPYRIGHT IBM CORP. 1981, 2000             *         00182000
.*             LICENSED MATERIALS - PROPERTY OF IBM           *         00187500
.*                                                            *         00193000
.* STATUS = HBB7703                                           *         00195200
.*                                                            *         00197400
.*01*  EXTERNAL CLASSIFICATION: PI                            *         00199600
.*01*  END OF EXTERNAL CLASSIFICATION:                        *         00201800
.*                                                            *         00204000
.* CHANGE ACTIVITY =                                          *         00204800
.*      OZ83278 - ENSURE ALIGNMENT ON A WORD BOUNDARY WHEN    *         00205600
.*                LIST FORM IS GENERATED.             @ZA83278*         00206400
.*                                                            *         00207200
.*      $L1 =    AR    HBB3310 851101 PDXB: AR SUPPORT        *         00208000
.*      $L2 =    AR    HBB3310 851101 PD35: AR SUPPORT        *         00208800
.*      $L3= 64BITCSV  HBB7703 981204 PD00XB: ESAME           *         00209400
.* REWRITE OF THE SYNCH MACRO FOR OZ24619 ADDS NEW PARAMETERS  @ZA24619 00210000
.*   RESTORE AND MF PLUS A PARAMETER LIST.                     @ZA24619 00260000
.* ADDITIONAL PARAMETERS ADDED FOR OZ30455 ARE STATE AND KEY   @ZA24619 00310000
.* ALL CODE IS FLAGGED WITH @ZA24619 SINCE ALL CHANGES WERE    @ZA24619 00360000
.*   DONE AT THE SAME TIME.                                    @ZA24619 00410000
.*                                                             @G381P2A 00431400
.* FOR MVS SYSTEM EXTENSION 3 FLAGGED BY @G381P2A              @G381P2A 00452800
.*                                                             @G381P2A 00474200
.* FOR MVS SYSTEM PRODUCT 2 FLAGGED BY @P860P6U THE AMODE      @G860P6U 00495600
.* PARAMETER IS ADDED.                                         @G381P2A 00517000
.*                                                             @G381P2A 00538400
.**************************************************************@ZA24619 00560000
.*  DECLARE LOCAL VARIABLES                                    @ZA24619 00610000
.**************************************************************@ZA24619 00660000
         LCLA  &PARM,&PARML                                    @ZA24619 00710000
.* FLAGS TO TURN ON BITS IN BYTE 0 OF PARAMETER LIST           @G860P6U 00735000
         LCLB  &B0,&B1,&B2,&B3,&B4,&B5,&B6,&B7                 @ZA24619 00760000
.* FLAGS TO TURN OFF BITS IN BYTE 0 OF PARAMETER LIST          @G860P6U 00776600
         LCLB  &C0,&C1,&C2,&C3,&C4,&C5,&C6,&C7                 @G860P6U 00793200
         LCLB  &B8,&B9,&B10,&B11,&B12,&B13,&B14,&B15           @ZA24619 00810000
         LCLC  &PREG                                           @ZA24619 00860000
         LCLC  &PARMKM          LOCAL VARIABLE FOR KEYMASK     @G381P2A 00910000
         GBLC  &SYSASCE           ASC ENVIRONMENT                  @L1A 00914100
         GBLC  &SYSAM64           AMODE                            @L3A 00915400
         GBLA  &SYSALVL           ARCHLVL                          @L3A 00916700
         SYSSTATE TEST            WHAT IS ASC ENVIRONMENT          @L1A 00918200
         AIF ('&SYSAM64' EQ 'YES').INVKSYNCHX AMODE 64, SYNCHX     @L3A 00919500
         AIF (&SYSALVL GT 1).INVKSYNCHX ESAME, SYNCHX              @L3A 00920800
         AIF ('&SYSASCE' EQ 'P').INVKSYN PRIMARY, PROCESS NORMALLY @L1A 00922300
.INVKSYNCHX ANOP                                                   @L3A 00924300
         MNOTE 0,'*** SYNCHX MACRO SUBSTITUTED FOR SYNCH MACRO BECAUSE X00926400
               ASCENV=AR/ANY, AMODE64=YES, OR ARCHLVL>1 SPECIFIED ON PRX00930500
               EVIOUSLY ISSUED SYSSTATE MACRO'                     @L3C 00934600
&NAME    SYNCHX &EP,RESTORE=&RESTORE,KEYADDR=&KEYADDR,                 X00938700
               STATE=&STATE,MF=&MF,KEYMASK=&KEYMASK,                   X00942800
               AMODE=&AMODE                                        @L1A 00946900
         MEXIT                                                     @L1A 00951000
.INVKSYN ANOP                                                      @L1A 00955100
&PARMKM  SETC  '0'              INITIALIZE TO ZERO             @G381P2A 00960000
&C0      SETB  1                INITIALIZE TO NOT RESET BIT    @G860P6U 00965500
&C1      SETB  1                INITIALIZE TO NOT RESET BIT    @G860P6U 00971000
&C2      SETB  1                INITIALIZE TO NOT RESET BIT    @G860P6U 00976500
&C3      SETB  1                INITIALIZE TO NOT RESET BIT    @G860P6U 00982000
&C4      SETB  1                INITIALIZE TO NOT RESET BIT    @G860P6U 00987500
&C5      SETB  1                INITIALIZE TO NOT RESET BIT    @G860P6U 00993000
&C6      SETB  1                INITIALIZE TO NOT RESET BIT    @G860P6U 00998500
&C7      SETB  1                INITIALIZE TO NOT RESET BIT    @G860P6U 01004000
.**************************************************************@ZA24619 01010000
.* CHECK FOR PARAMETER INCONSISTENCIES                         @ZA24619 01060000
.* IF MF=L THEN EP AND KEYADDR ARE NOT ALLOWED                 @ZA24619 01110000
.* IF MF IS NOT L THEN EP IS REQUIRED                          @ZA24619 01160000
.**************************************************************@ZA24619 01210000
         AIF   ('&MF' NE 'L').SYN0     MF=L CODED ?            @ZA24619 01260000
.*                                     YES,CONTINUE            @ZA24619 01310000
         AIF   ('&EP' NE '').ERR4      CAN NOT HAVE EP         @ZA24619 01360000
         AIF   (T'&KEYADDR NE 'O').ERR3  CAN NOT HAVE KEYADDR  @ZA24619 01410000
         AGO   .SYN2                                           @ZA24619 01460000
.SYN0    AIF   ('&EP' EQ '').ERR5      IF MF^=L MUST HAVE EP   @ZA24619 01510000
.**************************************************************@ZA24619 01560000
.* EXPAND CODE TO PUT ENTRY POINT ADDRESS IN REGISTER 15       @ZA24619 01610000
.**************************************************************@ZA24619 01660000
&NAME    DS    0H                      ALIGNMENT AND NAME      @ZA24619 01710000
         AIF   ('&EP'(1,1) EQ '(').SYN1 REGISTER SPECIFIED?    @ZA24619 01760000
.*                                      NO                     @ZA24619 01810000
         AIF   ('&AMODE' EQ 'DEFINED').ERR10 AMODE=DEFINED CAN @G860P6U 01822500
.*                                     ONLY BE SPECIFIED WITH  @G860P6U 01835000
.*                                     THE EP IN A REGISTER    @G860P6U 01847500
         LA    15,&EP                  LOAD ENTRY POINT ADDR.  @ZA24619 01860000
         AGO   .SYN2                                           @ZA24619 01910000
.SYN1    ANOP                                                  @G381P2A 01960000
         LR    15,&EP(1)               LOAD ENTRY POINT ADDR.  @ZA24619 02010000
.**************************************************************@ZA24619 02060000
.* CHECK PARAMETERS - WHICH SPECIFIED AND HOW                  @ZA24619 02110000
.**************************************************************@ZA24619 02160000
.SYN2    AIF   (T'&RESTORE EQ 'O').SYN4  RESTORE PARM CODED?   @ZA24619 02210000
&PARM    SETA  1                         YES                   @ZA24619 02260000
         AIF   ('&RESTORE' NE 'YES').SYN3                      @ZA24619 02310000
&B0      SETB  1                         TURN ON BIT IN PARMLIS@ZA24619 02360000
         AGO   .SYN4                                           @ZA24619 02410000
.SYN3    AIF   ('&RESTORE' NE 'NO').ERR1 INVALID RESTORE PARM? @ZA24619 02460000
.*                                       RESTORE=NO,CONTINUE   @ZA24619 02510000
&C0      SETB  0                         TURN OFF BIT IN PLIST @G860P6U 02535000
.SYN4    AIF   (T'&STATE EQ 'O').SYN6    STATE PARM CODED ?    @ZA24619 02560000
&PARM    SETA  1                         YES                   @ZA24619 02610000
         AIF   ('&STATE' NE 'SUPV').SYN5 STATE=SUPV ?          @ZA24619 02660000
.*                                       YES                   @ZA24619 02710000
&B9      SETB  1                         TURN ON IN PARMLIST   @ZA24619 02760000
         AGO   .SYN6                                           @ZA24619 02810000
.SYN5    AIF   ('&STATE' NE 'PROB').ERR2 INVALID STATE PARM?   @ZA24619 02860000
.*                                       NO,CONTINUE           @ZA24619 02910000
.SYN6    AIF   (T'&KEYADDR EQ 'O').SYN7   KEYADDR PARM CODED?  @ZA24619 02960000
&PARM    SETA  1                         PARM SPECIFIED        @ZA24619 03010000
         AIF   ('&KEYADDR' EQ 'NOKEYADDR').SYN7 KEY OVER RIDE? @ZA24619 03060000
&B8      SETB  1                         NO,TURN ON PARM       @ZA24619 03110000
.SYN7    ANOP                                                  @G381P2A 03160000
         AIF   (T'&KEYMASK EQ 'O').SYN71  KEYMASK NOT CODED ?  @G860P6U 03210000
&PARM    SETA  1                         PARM SPECIFIED        @G381P2A 03260000
         AIF   ('&KEYMASK'(1,1) EQ '(').SYN70 REGISTER FORM?   @G381P2A 03310000
.* VALUE SUPPLIED WAS NOT A REGISTER                           @G381P2A 03360000
&PARMKM  SETC  '&KEYMASK' SET LOCAL VARIABLE TO VALUE SUPPLIED @G381P2A 03410000
         AGO   .SYN71                                          @G860P6U 03460000
.SYN70   ANOP                                                  @G381P2A 03510000
         AIF   ('&MF' EQ 'L').ERR8       MF=L NOT ALLOWED WITH @G381P2A 03560000
.*                                      REGISTER FORM          @G381P2A 03610000
.SYN71   ANOP  ,                                               @G860P6U 03611700
         AIF   (T'&AMODE EQ 'O').SYN78  AMODE NOT SPECIFIED    @G860P6U 03613400
&PARM    SETA  1                        PARM SPECIFIED         @G860P6U 03615100
         AIF   ('&AMODE' NE '24').SYN72 WAS AMODE=24 SPECIFIED @G860P6U 03618500
&B6      SETB  0                        YES,                   @6860P6U 03620200
&B7      SETB  0                        SET BITS TO B'00'      @G860P6U 03621900
&C6      SETB  0                        ALSO, FOR CLEARING     @6860P6U 03623600
&C7      SETB  0                        SET BITS TO B'00'      @G860P6U 03625300
         AGO   .SYN790                                         @ZMC2552 03627000
.SYN72   AIF   ('&AMODE' NE 'DEFINED').SYN73 AMODE=DEFINED?    @G860P6U 03628700
&B6      SETB  0                        YES,                   @6860P6U 03630400
&B7      SETB  1                        SET BITS TO B'01'      @G860P6U 03632100
&C6      SETB  0                        ALSO, FOR CLEARING     @6860P6U 03633800
&C7      SETB  1                        SET BITS TO B'01'      @G860P6U 03635500
         AGO   .SYN790                                         @ZMC2552 03637200
.SYN73   AIF   ('&AMODE' NE '31').SYN74 AMODE=31 SPECIFIED?    @G860P6U 03638900
&B6      SETB  1                        YES,                   @6860P6U 03640600
&B7      SETB  0                        SET BITS TO B'10'      @G860P6U 03642300
&C6      SETB  1                        ALSO, FOR CLEARING     @6860P6U 03644000
&C7      SETB  0                        SET BITS TO B'10'      @G860P6U 03645700
         AGO   .SYN790                                         @ZMC2552 03647400
.SYN74   AIF   ('&AMODE' NE 'CALLER').ERR9  AMODE=CALLER?      @G860P6U 03649100
&B6      SETB  1                        YES,                   @6860P6U 03650800
&B7      SETB  1                        SET BITS TO B'11'      @G860P6U 03652500
&C6      SETB  1                        ALSO, FOR CLEARING     @6860P6U 03654200
&C7      SETB  1                        SET BITS TO B'11'      @G860P6U 03655900
         AGO   .SYN790                                         @ZMC2552 03656200
.**************************************************************@ZMC2552 03656500
.*  SET AMODE=CALLER DEFAULT IF E-FORM HAS NOT BEEN SPECIFIED  @ZMC2552 03656800
.**************************************************************@ZMC2552 03657100
.SYN78   ANOP                                                  @ZMC2552 03657400
         AIF   ('&MF(1)' EQ 'E').SYN790  MF=E?                 @ZMC2552 03657700
&B6      SETB  1                        NO, ALLOW DEFAULT      @ZMC2552 03658000
&B7      SETB  1                        SET BITS TO B'11'      @ZMC2552 03658300
&C6      SETB  1                        ALSO, FOR CLEARING     @ZMC2552 03658600
&C7      SETB  1                        SET BITS TO B'11'      @ZMC2552 03658900
.**************************************************************@ZA24619 03660000
.*  ANALYZE MF  PARAMETER AND EXPAND CODE ACCORDINGLY          @ZA24619 03710000
.**************************************************************@ZA24619 03760000
.SYN790  ANOP                                                  @G381P2A 03810000
         AIF   ('&MF' NE 'L').SYN8       MF=L ?                @G381P2A 03860000
.*                                       YES,CONTINUE          @ZA24619 03910000
.**************************************************************@ZA24619 03960000
.* MF=L FORM OF MACRO SPECIFIED, GENERATE LIST ONLY            @ZA24619 04010000
.**************************************************************@ZA24619 04060000
&NAME    DS    0F                      ALIGNMENT AND NAME      @ZA83278 04110000
         DC    B'&B0&B1&B2&B3&B4&B5&B6&B7'                     @ZA24619 04160000
         DC    B'&B8&B9&B10&B11&B12&B13&B14&B15'               @ZA24619 04210000
         DC    X'00'                   KEY BYTE OF PARM. LIST  @ZA24619 04260000
         DC    X'01'                   SYNCH MACRO LEVEL       @G381P2A 04310000
         DC    A(&PARMKM)              KEYMASK ADDRESS         @G381P2A 04360000
         AGO   .EXIT                                           @ZA24619 04410000
.SYN8    AIF   (T'&MF NE 'O').SYN9     MF CODED ?              @ZA24619 04460000
.**************************************************************@ZA24619 04510000
.* MF NOT SPECIFIED,PUT PARAMETER LIST IN LINE IF NEEDED       @ZA24619 04560000
.**************************************************************@ZA24619 04610000
         AIF   (&PARM EQ 0).SVC        ANY OTHER PARMS CODED?  @ZA24619 04660000
.*                                     YES,EXPAND PARM LIST    @ZA24619 04710000
         CNOP  0,4                     ALIGNMENT FOR OR        @ZA24619 04760000
         B     *+16                    BRANCH AROUND CONSTANTS @ZA24619 04810000
         DC    XL4'00000001'           PARAMETER LIST CONSTANT @ZA24619 04860000
         DC    B'&B0&B1&B2&B3&B4&B5&B6&B7'                     @ZA24619 04910000
         DC    B'&B8&B9&B10&B11&B12&B13&B14&B15'               @ZA24619 04960000
         DC    X'00'                   KEY BYTE OF PARM. LIST  @ZA24619 05010000
         DC    X'01'                   SYNCH MACRO LEVEL       @G381P2A 05060000
         DC    A(&PARMKM)              KEYMASK ADDRESS         @G381P2A 05110000
         LA    14,*-8                  POINT REG14 TO PARMLIST @ZA24619 05160000
         O     15,*-16                 INDICATE LIST EXISTS    @ZA24619 05210000
         AGO   .SYN16                  GO CHECK KEYADDR        @ZA24619 05260000
.SYN9    AIF   ('&MF(1)' NE 'E').ERR6  MF=E?                   @ZA24619 05310000
.**************************************************************@ZA24619 05360000
.*  MF=E FORM OF MACRO SPECIFIED, GET ADDRESS OF PARM. LIST   *@ZA24619 05410000
.**************************************************************@ZA24619 05460000
         AIF   ('&MF(2)' EQ '').ERR7   PARM ADDR. SPECIFIED ?  @ZA24619 05510000
.*                                     YES,CONTINUE            @ZA24619 05560000
         CNOP  0,4                     ALIGNMENT FOR OR        @ZA24619 05610000
         B     *+8                     BRANCH AROUND CONSTANT  @ZA24619 05660000
         DC    XL4'00000001'           PARAMETER LIST CONSTANT @ZA24619 05710000
.*                                                             @ZA24619 05760000
         AIF   ('&MF(2)'(1,1) NE '(').SYN10  REGISTER SPECIFIED@ZA24619 05810000
&PARML   SETA  K'&MF(2)-2              GET LENGTH OF REGISTER  @ZA24619 05860000
&PREG    SETC  '&MF(2)'(2,&PARML)      GET REGISTER SPECIFIED  @ZA24619 05910000
.*                                                             @ZA24619 05960000
         LA    14,0(&PREG)             POINT REG 14 TO PARMLIST@ZA24619 06010000
         O     15,*-8                  INDICATE LIST EXISTS    @ZA24619 06060000
.*                                                             @ZA24619 06110000
         AGO   .SYN11                  GO CHECK FOR OTHER PARMS@ZA24619 06160000
.SYN10   ANOP                                                  @ZA24619 06210000
.*                                                             @ZA24619 06260000
         LA    14,&MF(2)               POINT REG 14 TO PARMLIST@ZA24619 06310000
         O     15,*-8                  INDICATE LIST EXISTS    @ZA24619 06360000
.*                                                             @ZA24619 06410000
.SYN11   AIF   (&PARM EQ 0).SVC        IF NO OTHER PARMS, ISSUE@ZA24619 06460000
.**************************************************************@ZA24619 06510000
.*  MF=E CHECK FOR OVER RIDING PARAMETERS                      @ZA24619 06560000
.**************************************************************@ZA24619 06610000
.* DETERMINE IF ANY BITS NEED TO BE RESET                      @G860P6U 06655800
         AIF   (&C0 AND &C1 AND &C2 AND &C3 AND                        -06701600
               &C4 AND &C5 AND &C6 AND &C7).SYN121             @G860P6U 06747400
         NI    0(14),B'&C0&C1&C2&C3&C4&C5&C6&C7'               @G860P6U 06793200
.SYN121  ANOP  ,                                               @G860P6U 06839000
.* DETERMINE IF ANY BITS NEED TO BE SET                        @G860P6U 06884800
         AIF   (&B0 OR &B1 OR &B2 OR &B3 OR                            -06930600
               &B4 OR &B5 OR &B6 OR &B7).SYN122                @G860P6U 06976400
         AGO   .SYN13                                          @G860P6U 07022200
.SYN122  ANOP  ,                                               @G860P6U 07068000
         OI    0(14),B'&B0&B1&B2&B3&B4&B5&B6&B7'               @G860P6U 07113800
.**************************************************************@ZA24619 07160000
.* CHECK STATE AND KEYADDR FOR COMBINATIONS AND ADJUST BITS    @ZA24619 07210000
.**************************************************************@ZA24619 07260000
.SYN13   AIF   ((T'&STATE EQ 'O') AND (T'&KEYADDR EQ 'O')).SYN16   @L2C 07310000
         AIF   (('&STATE' EQ 'PROB') AND ('&KEYADDR' EQ 'NOKEYADDR')).SX07360000
               YN13A                                           @ZA24619 07410000
         AIF   ('&STATE' EQ 'PROB').SYN13B                     @ZA24619 07460000
         AIF   ('&KEYADDR' EQ 'NOKEYADDR').SYN13C              @ZA24619 07510000
         AGO   .SYN14                       TURN ON BIT OR BITS@ZA24619 07560000
.SYN13A  ANOP                               NO,TURN OFF BOTH   @ZA24619 07610000
         NI    1(14),X'FF'-X'C0'       TURN OFF BOTH BITS      @ZA24619 07660000
         AGO   .SYN16                       GO CHECK KEYMASK   @ZA24619 07710000
.SYN13B  ANOP                                                  @ZA24619 07760000
         NI    1(14),X'FF'-X'40'       TURN OFF SUPV BIT       @ZA24619 07810000
         AIF   (T'&KEYADDR EQ 'O').SYN16    KEYADDR SPECIFIED? @ZA24619 07860000
         AGO   .SYN14                       GO TURN ON KEY BIT @ZA24619 07910000
.SYN13C  ANOP                                                  @ZA24619 07960000
         NI    1(14),X'FF'-X'80'       TURN OFF KEYADDR BIT    @ZA24619 08010000
         AIF   (T'&STATE EQ 'O').SYN16      STATE SPECIFIED ?  @ZA24619 08060000
.**************************************************************@ZA24619 08110000
.* TURN ON EITHER OR BOTH BITS IN PARAMETER LIST               @ZA24619 08160000
.**************************************************************@ZA24619 08210000
.SYN14   ANOP                                                  @ZA24619 08260000
.*                                                             @ZA24619 08310000
         OI    1(14),B'&B8&B9&B10&B11&B12&B13&B14&B15'         @ZA24619 08360000
.**************************************************************@G381P2A 08410000
.*  MOVE KEYMASK ADDRESS INTO PARAMETER LIST                   @G381P2A 08460000
.**************************************************************@G381P2A 08510000
.SYN16   ANOP                                                  @G381P2A 08560000
         AIF   (T'&KEYMASK EQ 'O').SYN1690  KEYMASK SPECIFIED? @G381P2A 08610000
.*                                          YES,GET KEY        @G381P2A 08660000
         AIF   ('&KEYMASK'(1,1) EQ '(').SYN165 REGISTER ?      @G381P2A 08710000
.*                                          NO,GENERATE CODE   @G381P2A 08760000
         LA    1,&KEYMASK              PICK UP KEYMASK ADDR    @G381P2A 08810000
         ST    1,4(14)                 PUT ADDR IN PARM LIST   @G381P2A 08860000
.*                                          NO,GENERATE CODE   @G381P2A 08910000
         AGO   .SYN1690                     GO PROCESS KEYADDR @G381P2A 08960000
.SYN165  ANOP                               REGISTER SPECIFIED @G381P2A 09010000
&PARML   SETA  K'&KEYMASK-2                 GET LENGTH OF REG  @G381P2A 09060000
&PARMKM  SETC  '&KEYMASK'(2,&PARML)         GET REGISTER       @G381P2A 09110000
.*                                                             @G381P2A 09160000
         ST    &PARMKM,4(14)           STORE ADDRESS           @G381P2A 09210000
.**************************************************************@ZA24619 09260000
.*  MOVE KEY INTO PARAMETER LIST                               @ZA24619 09310000
.**************************************************************@ZA24619 09360000
.SYN1690 ANOP                                                  @G381P2A 09410000
         AIF   ('&MF(1)' NE 'E').SYN1691 MF=I BY DEFAULT ?     @ZMB0790 09422400
         MVI   3(14),X'01'             TURN ON MACRO LEVEL     @ZMB0036 09434900
.SYN1691 ANOP                                                  @ZMB0790 09447400
         AIF   ('&KEYADDR' EQ 'NOKEYADDR').SVC NO KEY? BRANCH  @G381P2A 09460000
         AIF   (T'&KEYADDR EQ 'O').SVC      KEYADDR SPECIFIED? @ZA24619 09510000
.*                                          YES,GET KEY        @ZA24619 09560000
         AIF   ('&KEYADDR'(1,1) EQ '(').SYN17 REGISTER ?       @ZA24619 09610000
.*                                          NO,GENERATE CODE   @ZA24619 09660000
         MVC   2(1,14),&KEYADDR        MOVE KEY TO PARM LIST   @ZA24619 09710000
.*                                          NO,GENERATE CODE   @ZA24619 09760000
         AGO   .SVC                         GO ISSUE SVC       @ZA24619 09810000
.SYN17   ANOP                               REGISTER SPECIFIED @ZA24619 09860000
&PARML   SETA  K'&KEYADDR-2                 GET LENGTH OF REG  @ZA24619 09910000
&PREG    SETC  '&KEYADDR'(2,&PARML)         GET REGISTER       @ZA24619 09960000
.*                                                             @ZA24619 10010000
         MVC   2(1,14),0(&PREG)        MOVE KEY TO PARM LIST   @ZA24619 10060000
         AGO   .SVC                         GO ISSUE SVC       @ZA24619 10110000
.*                                                             @ZA24619 10160000
.**************************************************************@ZA24619 10210000
.*  KEYADDR=NOKEYADDR SPECIFIED - OVER RIDE PARAMETER LIST     @ZA24619 10260000
.**************************************************************@ZA24619 10310000
.SYN18   ANOP                               NOKEYADDR SPECIFIED@ZA24619 10360000
.*                                                             @ZA24619 10410000
         NI    1(14),X'FF'-X'80'       INDICATE NO KEY SUPPLIED@ZA24619 10460000
.*                                                             @ZA24619 10510000
.**************************************************************@ZA24619 10560000
.*  NOW ISSUE SVC AND EXIT FROM MACRO                          @ZA24619 10610000
.**************************************************************@ZA24619 10660000
.SVC     ANOP                                                  @ZA24619 10710000
         SVC   12                      SYNCH SVC               @ZA24619 10760000
.EXIT    MEXIT                                                 @ZA24619 10810000
.**************************************************************@ZA24619 10860000
.*  MNOTES SECTION                                             @ZA24619 10910000
.**************************************************************@ZA24619 10960000
.ERR1    ANOP                                                  @ZA24619 11010000
         MNOTE 12,'RESTORE PARAMETER SPECIFIED NOT YES OR NO'  @ZA24619 11060000
         MEXIT                                                 @ZA24619 11110000
.ERR2    ANOP                                                  @ZA24619 11160000
         MNOTE 12,'STATE PARAMETER SPECIFIED IS NOT SUPV OR PROB'       11210000
         MEXIT                                                 @ZA24619 11260000
.ERR3    ANOP                                                  @ZA24619 11310000
         MNOTE 12,'KEYADDR PARAMETER NOT SUPPORTED IN LIST FORM'        11360000
         MEXIT                                                 @ZA24619 11410000
.ERR4    ANOP                                                  @ZA24619 11460000
         MNOTE 12,'ENTRY POINT PARAMETER NOT VALID IN LIST FORM'        11510000
         MEXIT                                                 @ZA24619 11560000
.ERR5    ANOP                                                  @ZA24619 11610000
         MNOTE 12,'ENTRY POINT REQUIRED IF NOT LIST FORM'      @ZA24619 11660000
         MEXIT                                                 @ZA24619 11710000
.ERR6    ANOP                                                  @ZA24619 11760000
         MNOTE 12,'MF SPECIFIED WAS NEITHER E NOR L'           @ZA24619 11810000
         MEXIT                                                 @ZA24619 11860000
.ERR7    ANOP                                                  @ZA24619 11910000
         MNOTE 12,'MF=E SPECIFIED BUT NO PARAMETER LIST ADDR. SUPPLIED' 11960000
         MEXIT                                                 @ZA24619 12010000
.ERR8    ANOP                                                  @G381P2A 12060000
         MNOTE 12,'MF=L NOT ALLOWED WITH KEYMASK REGISTER FORM'         12110000
         MEXIT                                                 @G381P2A 12160000
.ERR9    ANOP  ,                                               @G860P6U 12171100
         MNOTE 12,'AMODE SPECIFIED IS NOT 24, 31, CALLER OR DEFINED'    12182200
.*                                                             @G860P6U 12193300
         MEXIT                                                 @G860P6U 12204400
.ERR10   ANOP  ,                                               @G860P6U 12215500
         MNOTE 12,'AMODE=DEFINED MAY NOT BE SPECIFIED WITH RX-TYPE EP'  12226600
.*                                                             @G860P6U 12237700
         MEND                                                           12248800
**/                                                                     12260000
* SYNCH:                                                                12310000
*/********************************************************************/ 12360000
*/* PL/S VERSION OF SYNCH MACRO. WHEN INVOKED RECEIVES ENTRY POINT   */ 12410000
*/* NAME AS MACLIST ARGUMENT.                                @ZMB0481*/ 12460000
*/********************************************************************/ 12510000
*  MACRO                                                                12520000
*  KEYS(MF,RESTORE,AMODE,STATE,KEYADDR,KEYMASK);                        12530000
*                                                       /*       @L2C*/ 12540000
*        DCL SYSASCE CHAR EXT;     /* GLOBAL FOR SYSSTATE MACRO  @L2A*/ 12550000
*        DCL SYSAM64 CHAR EXT;     /* GLOBAL FOR SYSSTATE MACRO  @L3A*/ 12553300
*        DCL SYSALVL FIXED EXT;    /* GLOBAL FOR SYSSTATE MACRO  @L3A*/ 12556600
*        ANS('?SYSSTATE (TEST);'); /* OBTAIN DEFAULT SYSASCE     @L2A*/ 12560000
*        IF SYSASCE = 'P'          /* INVOKE NORMAL SYNCH        @L2A*/ 12565000
*         & SYSAM64 ^= 'YES'       /* INVOKE NORMAL SYNCH        @L3A*/ 12570000
*         & SYSALVL <= 1 THEN      /* INVOKE NORMAL SYNCH        @L3A*/ 12575000
*          ANS('?'||MACLABEL||'SYNCHP '||MACLIST||MACKEYS||';');        12580000
*        ELSE DO;                  /* INVOKE SYNCHX              @L2A*/ 12590000
*          ANS MSG('SYNCHX MACRO SUBSTITUTED FOR SYNCH MACRO'||         12600000
*                  ' BECAUSE ASCENV(AR/ANY), AMODE64(YES), OR' ||       12607500
*                  ' ARCHLVL(>1) SPECIFIED ON PREVIOUSLY ISSUED' ||     12615000
*                  ' SYSSTATE MACRO');        /*                 @L3C*/ 12622500
*          ANS('?'||MACLABEL||'SYNCHXP '||MACLIST||MACKEYS||';'); /*    12630000
*                                    INVOKE X-VERSION            @L2A*/ 12640000