*%/*                                                                    00025000
         MACRO                                                 @ZA24619 00050000
&NAME    SYNCHX &EP,&RESTORE=,&KEYADDR=,&STATE=,&MF=,&KEYMASK=,    @L1C-00100000
               &AMODE=,&XMENV=                                     @L2C 00150000
.**************************************************************@ZA24619 00200000
.*                                                                    * 00250000
.* COPYRIGHT = 5647-A01                                       *         00290900
.*             THIS MODULE IS "RESTRICTED MATERIALS OF IBM"   *         00331800
.*             (C) COPYRIGHT IBM CORP. 1981, 2000             *         00372700
.*             LICENSED MATERIALS - PROPERTY OF IBM           *         00413600
.*                                                            *         00454500
.* STATUS = HBB7703                                           *         00495400
.*                                                            *         00536300
.*01*EXTERNAL CLASSIFICATION: PI                              *         00577200
.*01*END OF EXTERNAL CLASSIFICATION:                          *         00618100
.*                                                            *         00659000
.* REWRITE OF THE SYNCH MACRO FOR OZ24619 ADDS NEW PARAMETERS  @ZA24619 00700000
.*   RESTORE AND MF PLUS A PARAMETER LIST.                     @ZA24619 00750000
.* ADDITIONAL PARAMETERS ADDED FOR OZ30455 ARE STATE AND KEY   @ZA24619 00800000
.* ALL CODE IS FLAGGED WITH @ZA24619 SINCE ALL CHANGES WERE    @ZA24619 00850000
.*   DONE AT THE SAME TIME.                                    @ZA24619 00900000
.*                                                             @G381P2A 00950000
.* FOR MVS SYSTEM EXTENSION 3 FLAGGED BY @G381P2A              @G381P2A 01000000
.*                                                             @G381P2A 01050000
.* FOR MVS SYSTEM PRODUCT 2 FLAGGED BY @P860P6U THE AMODE      @G860P6U 01100000
.* PARAMETER IS ADDED.                                         @G381P2A 01150000
.*                                                             @G381P2A 01200000
.* CHANGE ACTIVITY =                                                  * 01250000
.*      OZ83278 - ENSURE ALIGNMENT ON A WORD BOUNDARY WHEN              01300000
.*                LIST FORM IS GENERATED.                      @ZA83278 01350000
.*                                                                      01400000
.*   $L1 =    AR    HBB3310 850901 PDXB: AR SUPPORT                   * 01450000
.*   $L2 =    AR    HBB3310 850336 PD35: XMENV SUPPORT                * 01475000
.*   $P1 =  PC40334 HBB3310 861209 PD35: INCREASE THE BRANCH OFFSET   * 01483300
.*   $P2 =  PC40340 HBB3310 861209 PD35: OZ83278 INTEGRATION          * 01491600
.*   $L3= 64BITCSV  HBB7703 981204 PD00XB: ESAME                      * 01495800
.*                                                                    * 01500000
.**************************************************************@ZA24619 01550000
.*  DECLARE LOCAL VARIABLES                                    @ZA24619 01600000
.**************************************************************@ZA24619 01650000
         LCLA  &PARM,&PARML                                    @ZA24619 01700000
.* FLAGS TO TURN ON BITS IN BYTE 0 OF PARAMETER LIST           @G860P6U 01750000
         LCLB  &B0,&B1,&B2,&B3,&B4,&B5,&B6,&B7                 @ZA24619 01800000
.* FLAGS TO TURN OFF BITS IN BYTE 0 OF PARAMETER LIST          @G860P6U 01850000
         LCLB  &C0,&C1,&C2,&C3,&C4,&C5,&C6,&C7                 @G860P6U 01900000
.* FLAGS TO TURN ON BITS IN BYTE 1 OF PARAMETER LIST                    01925000
         LCLB  &B8,&B9,&B10,&B11,&B12,&B13,&B14,&B15           @ZA24619 01950000
.* FLAGS TO TURN OFF BITS IN BYTE 1 OF PARAMETER LIST              @L2A 01966600
         LCLB  &C8,&C9,&C10,&C11,&C12,&C13,&C14,&C15               @L2A 01983200
         LCLC  &PREG                                           @ZA24619 02000000
         LCLC  &PARMKM          LOCAL VARIABLE FOR KEYMASK     @G381P2A 02050000
&PARMKM  SETC  '0'              INITIALIZE TO ZERO             @G381P2A 02100000
&C0      SETB  1                INITIALIZE TO NOT RESET BIT    @G860P6U 02150000
&C1      SETB  1                INITIALIZE TO NOT RESET BIT    @G860P6U 02200000
&C2      SETB  1                INITIALIZE TO NOT RESET BIT    @G860P6U 02250000
&C3      SETB  1                INITIALIZE TO NOT RESET BIT    @G860P6U 02300000
&C4      SETB  1                INITIALIZE TO NOT RESET BIT    @G860P6U 02350000
&C5      SETB  1                INITIALIZE TO NOT RESET BIT    @G860P6U 02400000
&C6      SETB  1                INITIALIZE TO NOT RESET BIT    @G860P6U 02450000
&C7      SETB  1                INITIALIZE TO NOT RESET BIT    @G860P6U 02500000
&C8      SETB  1                INITIALIZE TO NOT RESET BIT        @L2A 02505500
&C9      SETB  1                INITIALIZE TO NOT RESET BIT        @L2A 02511000
&C10     SETB  1                INITIALIZE TO NOT RESET BIT        @L2A 02516500
&C11     SETB  1                INITIALIZE TO NOT RESET BIT        @L2A 02522000
&C12     SETB  1                INITIALIZE TO NOT RESET BIT        @L2A 02527500
&C13     SETB  1                INITIALIZE TO NOT RESET BIT        @L2A 02533000
&C14     SETB  1                INITIALIZE TO NOT RESET BIT        @L2A 02538500
&C15     SETB  1                INITIALIZE TO NOT RESET BIT        @L2A 02544000
         LCLC  &LA                      "LA" OR "LAE" VIA SYSSTATE @L1A 02550000
         GBLC  &SYSASCE                                            @L1A 02900000
         GBLA  &SYSALVL                                            @L3A 02925000
         SYSSTATE TEST                  TEST ASC ENVIRONMENT       @L1A 02950000
&LA      SETC  'LA'                     MUST USE LA INSTRUCTION    @L1A 02960000
         AIF   ('&SYSASCE' EQ 'P').NOLAE                           @L1A 02970000
&LA      SETC  'LAE'                    MUST USE LAE               @L1A 02980000
.NOLAE   ANOP                                                      @L1A 02990000
.**************************************************************@ZA24619 03000000
.* CHECK FOR PARAMETER INCONSISTENCIES                         @ZA24619 03050000
.* IF MF=L THEN EP AND KEYADDR ARE NOT ALLOWED                 @ZA24619 03100000
.* IF MF IS NOT L THEN EP IS REQUIRED                          @ZA24619 03150000
.**************************************************************@ZA24619 03200000
         AIF   ('&MF' NE 'L').SYN0     MF=L CODED ?            @ZA24619 03250000
.*                                     YES,CONTINUE            @ZA24619 03300000
         AIF   ('&EP' NE '').ERR4      CAN NOT HAVE EP         @ZA24619 03350000
         AIF   (T'&KEYADDR NE 'O').ERR3  CAN NOT HAVE KEYADDR  @ZA24619 03400000
         AGO   .SYN2                                           @ZA24619 03450000
.SYN0    AIF   ('&EP' EQ '').ERR5      IF MF^=L MUST HAVE EP   @ZA24619 03500000
.**************************************************************@ZA24619 03550000
.* EXPAND CODE TO PUT ENTRY POINT ADDRESS IN REGISTER 15       @ZA24619 03600000
.**************************************************************@ZA24619 03650000
&NAME    DS    0H                      ALIGNMENT AND NAME      @ZA24619 03700000
         AIF   (&SYSALVL LT 2).SYN0A                               @L3A 03712500
         SLGR  15,15                   MAKE SURE BITS 0-31 OK      @L3A 03725000
.SYN0A   ANOP                                                  @G381P2A 03737500
         AIF   ('&EP'(1,1) EQ '(').SYN1 REGISTER SPECIFIED?    @ZA24619 03750000
.*                                      NO                     @ZA24619 03800000
         AIF   ('&AMODE' EQ 'DEFINED').ERR10 AMODE=DEFINED CAN @G860P6U 03850000
.*                                     ONLY BE SPECIFIED WITH  @G860P6U 03900000
.*                                     THE EP IN A REGISTER    @G860P6U 03950000
         LA    15,&EP                  LOAD ENTRY POINT ADDR.  @ZA24619 04000000
         AGO   .SYN2                                           @ZA24619 04050000
.SYN1    ANOP                                                  @G381P2A 04100000
         LR    15,&EP(1)               LOAD ENTRY POINT ADDR.  @ZA24619 04150000
.**************************************************************@ZA24619 04200000
.* CHECK PARAMETERS - WHICH SPECIFIED AND HOW                  @ZA24619 04250000
.**************************************************************@ZA24619 04300000
.SYN2    AIF   (T'&RESTORE EQ 'O').SYN4  RESTORE PARM CODED?   @ZA24619 04350000
&PARM    SETA  1                         YES                   @ZA24619 04400000
         AIF   ('&RESTORE' NE 'YES').SYN3                      @ZA24619 04450000
&B0      SETB  1                         TURN ON BIT IN PARMLIS@ZA24619 04500000
         AGO   .SYN4                                           @ZA24619 04550000
.SYN3    AIF   ('&RESTORE' NE 'NO').ERR1 INVALID RESTORE PARM? @ZA24619 04600000
.*                                       RESTORE=NO,CONTINUE   @ZA24619 04650000
&C0      SETB  0                         TURN OFF BIT IN PLIST @G860P6U 04700000
.SYN4    AIF   (T'&STATE EQ 'O').SYN6    STATE PARM CODED ?    @ZA24619 04750000
&PARM    SETA  1                         YES                   @ZA24619 04800000
         AIF   ('&STATE' NE 'SUPV').SYN5 STATE=SUPV ?          @ZA24619 04850000
.*                                       YES                   @ZA24619 04900000
&B9      SETB  1                         TURN ON IN PARMLIST   @ZA24619 04950000
         AGO   .SYN6                                           @ZA24619 05000000
.SYN5    AIF   ('&STATE' NE 'PROB').ERR2 INVALID STATE PARM?   @ZA24619 05050000
.*                                       NO,CONTINUE           @ZA24619 05100000
&C9      SETB  0                         TURN OFF BIT IN PLIST     @L2A 05125000
.SYN6    AIF   (T'&KEYADDR EQ 'O').SYN7   KEYADDR PARM CODED?  @ZA24619 05150000
&PARM    SETA  1                         PARM SPECIFIED        @ZA24619 05200000
         AIF   ('&KEYADDR' EQ 'NOKEYADDR').SYN7A  KEY OVER RIDE?   @L2C 05250000
&B8      SETB  1                         NO,TURN ON PARM       @ZA24619 05300000
         AGO   .SYN7                                               @L2A 05312500
.SYN7A   ANOP                                                      @L2A 05325000
&C8      SETB  0                         TURN OFF BIT IN PLIST     @L2A 05337500
.SYN7    ANOP                                                  @G381P2A 05350000
         AIF   (T'&XMENV EQ 'O').SYNKM    XMENV NOT CODED ?        @L2A 05355000
         AIF   (T'&KEYMASK NE 'O').ERR11  KEYMASK CODED ALSO ?     @L2A 05360000
&PARM    SETA  1                         PARM SPECIFIED            @L2A 05365000
&B10     SETB  1                         FLAG FOR PARAMETER LIST   @L2A 05370000
         AIF   ('&XMENV'(1,1) EQ '(').SYN70   REGISTER FORM?       @L2A 05375000
.* VALUE SUPPLIED WAS NOT A REGISTER                               @L2A 05380000
&PARMKM  SETC  '&XMENV' SET LOCAL VARIABLE TO VALUE SUPPLIED       @L2A 05385000
         AGO   .SYN71                                              @L2A 05390000
.SYNKM   ANOP                                                      @L2A 05395000
         AIF   (T'&KEYMASK EQ 'O').SYN71  KEYMASK NOT CODED ?  @G860P6U 05400000
&PARM    SETA  1                         PARM SPECIFIED        @G381P2A 05450000
         AIF   ('&KEYMASK'(1,1) EQ '(').SYN70 REGISTER FORM?   @G381P2A 05500000
.* VALUE SUPPLIED WAS NOT A REGISTER                           @G381P2A 05550000
&PARMKM  SETC  '&KEYMASK' SET LOCAL VARIABLE TO VALUE SUPPLIED @G381P2A 05600000
         AGO   .SYN71                                          @G860P6U 05650000
.SYN70   ANOP                                                  @G381P2A 05700000
         AIF   ('&MF' EQ 'L').ERR8       MF=L NOT ALLOWED WITH @G381P2A 05750000
.*                                      REGISTER FORM          @G381P2A 05800000
.SYN71   ANOP  ,                                               @G860P6U 05850000
         AIF   (T'&AMODE EQ 'O').SYN78  AMODE NOT SPECIFIED    @G860P6U 05900000
&PARM    SETA  1                        PARM SPECIFIED         @G860P6U 05950000
         AIF   ('&AMODE' NE '24').SYN72 WAS AMODE=24 SPECIFIED @G860P6U 06000000
&B6      SETB  0                        YES,                   @6860P6U 06050000
&B7      SETB  0                        SET BITS TO B'00'      @G860P6U 06100000
&C6      SETB  0                        ALSO, FOR CLEARING     @6860P6U 06150000
&C7      SETB  0                        SET BITS TO B'00'      @G860P6U 06200000
         AGO   .SYN790                                         @ZMC2552 06250000
.SYN72   AIF   ('&AMODE' NE 'DEFINED').SYN73 AMODE=DEFINED?    @G860P6U 06300000
&B6      SETB  0                        YES,                   @6860P6U 06350000
&B7      SETB  1                        SET BITS TO B'01'      @G860P6U 06400000
&C6      SETB  0                        ALSO, FOR CLEARING     @6860P6U 06450000
&C7      SETB  1                        SET BITS TO B'01'      @G860P6U 06500000
         AGO   .SYN790                                         @ZMC2552 06550000
.SYN73   AIF   ('&AMODE' NE '31').SYN74 AMODE=31 SPECIFIED?    @G860P6U 06600000
&B6      SETB  1                        YES,                   @6860P6U 06650000
&B7      SETB  0                        SET BITS TO B'10'      @G860P6U 06700000
&C6      SETB  1                        ALSO, FOR CLEARING     @6860P6U 06750000
&C7      SETB  0                        SET BITS TO B'10'      @G860P6U 06800000
         AGO   .SYN790                                         @ZMC2552 06850000
.SYN74   AIF   ('&AMODE' NE 'CALLER').ERR9  AMODE=CALLER?      @G860P6U 06900000
&B6      SETB  1                        YES,                   @6860P6U 06950000
&B7      SETB  1                        SET BITS TO B'11'      @G860P6U 07000000
&C6      SETB  1                        ALSO, FOR CLEARING     @6860P6U 07050000
&C7      SETB  1                        SET BITS TO B'11'      @G860P6U 07100000
         AGO   .SYN790                                         @ZMC2552 07150000
.**************************************************************@ZMC2552 07200000
.*  SET AMODE=CALLER DEFAULT IF E-FORM HAS NOT BEEN SPECIFIED  @ZMC2552 07250000
.**************************************************************@ZMC2552 07300000
.SYN78   ANOP                                                  @ZMC2552 07350000
         AIF   ('&MF(1)' EQ 'E').SYN790  MF=E?                 @ZMC2552 07400000
&B6      SETB  1                        NO, ALLOW DEFAULT      @ZMC2552 07450000
&B7      SETB  1                        SET BITS TO B'11'      @ZMC2552 07500000
&C6      SETB  1                        ALSO, FOR CLEARING     @ZMC2552 07550000
&C7      SETB  1                        SET BITS TO B'11'      @ZMC2552 07600000
.**************************************************************@ZA24619 07650000
.*  ANALYZE MF  PARAMETER AND EXPAND CODE ACCORDINGLY          @ZA24619 07700000
.**************************************************************@ZA24619 07750000
.SYN790  ANOP                                                  @G381P2A 07800000
         AIF   ('&MF' NE 'L').SYN8       MF=L ?                @G381P2A 07850000
.*                                       YES,CONTINUE          @ZA24619 07900000
.**************************************************************@ZA24619 07950000
.* MF=L FORM OF MACRO SPECIFIED, GENERATE LIST ONLY            @ZA24619 08000000
.**************************************************************@ZA24619 08050000
&NAME    DS    0F                      ALIGNMENT AND NAME      @ZA83278 08100000
         DC    B'&B0&B1&B2&B3&B4&B5&B6&B7'                     @ZA24619 08150000
         DC    B'&B8&B9&B10&B11&B12&B13&B14&B15'               @ZA24619 08200000
         DC    X'00'                   KEY BYTE OF PARM. LIST  @ZA24619 08250000
         DC    X'02'                   SYNCH MACRO LEVEL       @G381P2A 08300000
         DC    A(&PARMKM)              KEYMASK ADDRESS         @G381P2A 08350000
         DC    A(0)                    ALET FOR KEYMASK ADDRESS    @L1A 08400000
         AGO   .EXIT                                           @ZA24619 08450000
.SYN8    AIF   (T'&MF NE 'O').SYN9     MF CODED ?              @ZA24619 08500000
.**************************************************************@ZA24619 08550000
.* MF NOT SPECIFIED,PUT PARAMETER LIST IN LINE IF NEEDED       @ZA24619 08600000
.**************************************************************@ZA24619 08650000
         AIF   (&PARM EQ 0).SVC        ANY OTHER PARMS CODED?  @ZA24619 08700000
.*                                     YES,EXPAND PARM LIST    @ZA24619 08750000
         CNOP  0,4                     ALIGNMENT FOR OR        @ZA24619 08800000
         B     *+20                    BRANCH AROUND CONSTANTS     @P1C 08850000
         DC    XL4'00000001'           PARAMETER LIST CONSTANT @ZA24619 08900000
         DC    B'&B0&B1&B2&B3&B4&B5&B6&B7'                     @ZA24619 08950000
         DC    B'&B8&B9&B10&B11&B12&B13&B14&B15'               @ZA24619 09000000
         DC    X'00'                   KEY BYTE OF PARM. LIST  @ZA24619 09050000
         DC    X'02'                   SYNCH MACRO LEVEL       @G381P2A 09100000
         DC    A(&PARMKM)              KEYMASK ADDRESS         @G381P2A 09150000
         DC    A(0)                    ALET FOR KEYMASK ADDRESS    @L1A 09200000
         &LA   14,*-12                 POINT REG14 TO PARMLIST     @L1A 09250000
         O     15,*-20                 INDICATE LIST EXISTS        @L1A 09300000
         AGO   .SYN16                  GO CHECK KEYADDR        @ZA24619 09350000
.SYN9    AIF   ('&MF(1)' NE 'E').ERR6  MF=E?                   @ZA24619 09400000
.**************************************************************@ZA24619 09450000
.*  MF=E FORM OF MACRO SPECIFIED, GET ADDRESS OF PARM. LIST   *@ZA24619 09500000
.**************************************************************@ZA24619 09550000
         AIF   ('&MF(2)' EQ '').ERR7   PARM ADDR. SPECIFIED ?  @ZA24619 09600000
.*                                     YES,CONTINUE            @ZA24619 09650000
         CNOP  0,4                     ALIGNMENT FOR OR        @ZA24619 09700000
         B     *+8                     BRANCH AROUND CONSTANT  @ZA24619 09750000
         DC    XL4'00000001'           PARAMETER LIST CONSTANT @ZA24619 09800000
.*                                                             @ZA24619 09850000
         AIF   ('&MF(2)'(1,1) NE '(').SYN10  REGISTER SPECIFIED@ZA24619 09900000
&PARML   SETA  K'&MF(2)-2              GET LENGTH OF REGISTER  @ZA24619 09950000
&PREG    SETC  '&MF(2)'(2,&PARML)      GET REGISTER SPECIFIED  @ZA24619 10000000
.*                                                             @ZA24619 10050000
         &LA   14,0(,&PREG)            POINT REG 14 TO PARMLIST    @L1C 10100000
         O     15,*-8                  INDICATE LIST EXISTS    @ZA24619 10150000
.*                                                             @ZA24619 10200000
         AGO   .SYN11                  GO CHECK FOR OTHER PARMS@ZA24619 10250000
.SYN10   ANOP                                                  @ZA24619 10300000
.*                                                             @ZA24619 10350000
         &LA   14,&MF(2)               POINT REG 14 TO PARMLIST    @L1C 10400000
         O     15,*-8                  INDICATE LIST EXISTS    @ZA24619 10450000
.*                                                             @ZA24619 10500000
.SYN11   AIF   (&PARM EQ 0).SVC        IF NO OTHER PARMS, ISSUE@ZA24619 10550000
.**************************************************************@ZA24619 10600000
.*  MF=E CHECK FOR OVER RIDING PARAMETERS                      @ZA24619 10650000
.**************************************************************@ZA24619 10700000
.* DETERMINE IF ANY BITS NEED TO BE RESET                      @G860P6U 10750000
         AIF   (&C0 AND &C1 AND &C2 AND &C3 AND                        -10800000
               &C4 AND &C5 AND &C6 AND &C7).SYN121             @G860P6U 10850000
         NI    0(14),B'&C0&C1&C2&C3&C4&C5&C6&C7'               @G860P6U 10900000
.SYN121  ANOP  ,                                               @G860P6U 10950000
.* DETERMINE IF ANY BITS NEED TO BE SET                        @G860P6U 11000000
         AIF   (&B0 OR &B1 OR &B2 OR &B3 OR                            -11050000
               &B4 OR &B5 OR &B6 OR &B7).SYN122                @G860P6U 11100000
         AGO   .SYN13                                          @G860P6U 11150000
.SYN122  ANOP  ,                                               @G860P6U 11200000
         OI    0(14),B'&B0&B1&B2&B3&B4&B5&B6&B7'               @G860P6U 11250000
.*                                                                 @L2C 11300000
.SYN13   ANOP                                                      @L2C 11350000
.* DETERMINE IF ANY BITS NEED TO BE RESET IN THE 2ND FLAG BYTE     @L2A 11400000
         AIF   (&C8 AND &C9 AND &C10 AND &C11 AND                      -11450000
               &C12 AND &C13 AND &C14 AND &C15).SYN131             @L2A 11500000
         NI    1(14),B'&C8&C9&C10&C11&C12&C13&C14&C15'             @L2A 11550000
.*                                                                 @L2A 11583300
.SYN131  ANOP                                                      @L2A 11616600
.* DETERMINE IF ANY BITS NEED TO BE SET IN THE 2ND FLAG BYTE       @L2A 11650000
         AIF   (&B8 OR &B9 OR &B10 OR &B11 OR                          -11700000
               &B12 OR &B13 OR &B14 OR &B15).SYN14                 @L2A 11750000
         AGO   .SYN16                                              @L2A 11800000
.SYN14   ANOP                                                  @ZA24619 11850000
.*                                                             @ZA24619 11900000
         OI    1(14),B'&B8&B9&B10&B11&B12&B13&B14&B15'         @ZA24619 12500000
.**************************************************************@G381P2A 12550000
.*  MOVE KEYMASK ADDRESS INTO PARAMETER LIST                   @G381P2A 12600000
.**************************************************************@G381P2A 12650000
.SYN16   ANOP                                                  @G381P2A 12700000
         AIF   (T'&KEYMASK EQ 'O').SYNXMV   KEYMASK SPECIFIED?     @L2C 12750000
.*                                          YES,GET KEY        @G381P2A 12800000
         AIF   ('&KEYMASK'(1,1) EQ '(').SYN165 REGISTER ?      @G381P2A 12850000
.*                                          NO,GENERATE CODE   @G381P2A 12900000
         AIF   ('&MF(1)' NE 'E').SYN1690    MF=I BY DEFAULT ?      @L2A 12925000
         &LA   1,&KEYMASK              PICK UP KEYMASK ADDR        @L1C 12950000
         ST    1,4(,14)                PUT ADDR IN PARM LIST   @G381P2A 13000000
.*                                          NO,GENERATE CODE   @G381P2A 13050000
         AIF   ('&SYSASCE' EQ 'P').SYN1690                         @L1A 13100000
         STAM  1,1,8(14)               SAVE ALET                   @L1A 13150000
         AGO   .SYN1690                     GO PROCESS KEYADDR @G381P2A 13200000
.SYN165  ANOP                               REGISTER SPECIFIED @G381P2A 13250000
&PARML   SETA  K'&KEYMASK-2                 GET LENGTH OF REG  @G381P2A 13300000
&PARMKM  SETC  '&KEYMASK'(2,&PARML)         GET REGISTER       @G381P2A 13350000
.*                                                             @G381P2A 13400000
         ST    &PARMKM,4(,14)          STORE ADDRESS               @L1C 13450000
         AIF   ('&SYSASCE' EQ 'P').SYN1690                         @L1A 13500000
         STAM  &PARMKM,&PARMKM,8(14) SAVE ALET                     @L1A 13550000
         AGO   .SYN1690                     GO PROCESS KEYADDR     @L2A 13551100
.******************************************************************@L2A 13552200
.*  MOVE XMENV ADDRESS INTO PARAMETER LIST                         @L2A 13554400
.******************************************************************@L2A 13556600
.SYNXMV  ANOP                                                      @L2A 13558800
         AIF   (T'&XMENV EQ 'O').SYN1690    XMENV SPECIFIED?       @L2A 13561000
.*                                          YES, CONTINUE          @L2A 13563200
         AIF   ('&XMENV'(1,1) EQ '(').SYNXMV1  REGISTER ?          @L2A 13565400
.*                                          NO, GET THE ADDRESS    @L2A 13567600
         AIF   ('&MF(1)' NE 'E').SYN1690    MF=I BY DEFAULT ?      @L2A 13568700
         &LA   1,&XMENV                OBTAIN THE XMENV ADDRESS    @L2C 13569800
         ST    1,4(,14)                PUT ADDR IN PARM LIST       @L2A 13572000
.*                                          TEST FOR AR ASC MODE   @L2A 13574200
         AIF   ('&SYSASCE' EQ 'P').SYN1690                         @L2A 13576400
         STAM  1,1,8(14)               SAVE ALET                   @L2A 13578600
         AGO   .SYN1690                     GO PROCESS KEYADDR     @L2A 13580800
.SYNXMV1 ANOP                               REGISTER SPECIFIED     @L2A 13583000
&PARML   SETA  K'&XMENV-2                   GET LENGTH OF REG      @L2A 13585200
&PARMKM  SETC  '&XMENV'(2,&PARML)           GET REGISTER           @L2A 13587400
.*                                                                 @L2A 13589600
         ST    &PARMKM,4(,14)          STORE ADDRESS               @L2C 13591800
         AIF   ('&SYSASCE' EQ 'P').SYN1690                         @L2A 13594000
         STAM  &PARMKM,&PARMKM,8(14) SAVE ALET                     @L2A 13596200
.**************************************************************@ZA24619 13600000
.*  MOVE KEY INTO PARAMETER LIST                               @ZA24619 13650000
.**************************************************************@ZA24619 13700000
.SYN1690 ANOP                                                  @G381P2A 13750000
         AIF   ('&MF(1)' NE 'E').SYN1691 MF=I BY DEFAULT ?     @ZMB0790 13800000
         AIF   (&PARM EQ 0).SYN1691    NON-INITIALIZED PARM. LIST  @L2A 13825000
         MVI   3(14),X'02'             TURN ON MACRO LEVEL         @L1C 13850000
.SYN1691 ANOP                                                  @ZMB0790 13900000
         AIF   ('&KEYADDR' EQ 'NOKEYADDR').SVC NO KEY? BRANCH  @G381P2A 13950000
         AIF   (T'&KEYADDR EQ 'O').SVC      KEYADDR SPECIFIED? @ZA24619 14000000
.*                                          YES,GET KEY        @ZA24619 14050000
         AIF   ('&KEYADDR'(1,1) EQ '(').SYN17 REGISTER ?       @ZA24619 14100000
.*                                          NO,GENERATE CODE   @ZA24619 14150000
         MVC   2(1,14),&KEYADDR        MOVE KEY TO PARM LIST   @ZA24619 14200000
.*                                          NO,GENERATE CODE   @ZA24619 14250000
         AGO   .SVC                         GO ISSUE SVC       @ZA24619 14300000
.SYN17   ANOP                               REGISTER SPECIFIED @ZA24619 14350000
&PARML   SETA  K'&KEYADDR-2                 GET LENGTH OF REG  @ZA24619 14400000
&PREG    SETC  '&KEYADDR'(2,&PARML)         GET REGISTER       @ZA24619 14450000
.*                                                             @ZA24619 14500000
         MVC   2(1,14),0(&PREG)        MOVE KEY TO PARM LIST   @ZA24619 14550000
.*                                                             @ZA24619 14650000
.**************************************************************@ZA24619 14700000
.*  NOW ISSUE SVC AND EXIT FROM MACRO                          @ZA24619 15100000
.**************************************************************@ZA24619 15150000
.SVC     ANOP                                                  @ZA24619 15200000
         SVC   12                      SYNCH SVC               @ZA24619 15250000
.EXIT    MEXIT                                                 @ZA24619 15300000
.**************************************************************@ZA24619 15350000
.*  MNOTES SECTION                                             @ZA24619 15400000
.**************************************************************@ZA24619 15450000
.ERR1    ANOP                                                  @ZA24619 15500000
         MNOTE 12,'RESTORE PARAMETER SPECIFIED NOT YES OR NO'  @ZA24619 15550000
         MEXIT                                                 @ZA24619 15600000
.ERR2    ANOP                                                  @ZA24619 15650000
         MNOTE 12,'STATE PARAMETER SPECIFIED IS NOT SUPV OR PROB'       15700000
         MEXIT                                                 @ZA24619 15750000
.ERR3    ANOP                                                  @ZA24619 15800000
         MNOTE 12,'KEYADDR PARAMETER NOT SUPPORTED IN LIST FORM'        15850000
         MEXIT                                                 @ZA24619 15900000
.ERR4    ANOP                                                  @ZA24619 15950000
         MNOTE 12,'ENTRY POINT PARAMETER NOT VALID IN LIST FORM'        16000000
         MEXIT                                                 @ZA24619 16050000
.ERR5    ANOP                                                  @ZA24619 16100000
         MNOTE 12,'ENTRY POINT REQUIRED IF NOT LIST FORM'      @ZA24619 16150000
         MEXIT                                                 @ZA24619 16200000
.ERR6    ANOP                                                  @ZA24619 16250000
         MNOTE 12,'MF SPECIFIED WAS NEITHER E NOR L'           @ZA24619 16300000
         MEXIT                                                 @ZA24619 16350000
.ERR7    ANOP                                                  @ZA24619 16400000
         MNOTE 12,'MF=E SPECIFIED BUT NO PARAMETER LIST ADDR. SUPPLIED' 16450000
         MEXIT                                                 @ZA24619 16500000