         MACRO                                                          03000003
&NAME    THI   &H,&I                    TEST HEADER UNDER IMM. MASK     06000003
         LCLA  &V                                                       06500000
&V       SETA  &I                                                       07000000
         AIF   (&V LE 255).TH0                                          07500000
         MNOTE 8,'***  IHB421 IMMEDIATE VALUE EXCEEDS ALLOWED MAXIMUM'  08000000
.TH0     ANOP                                                           08500000
         AIF   ('&H' LT '12').TH1                                       09000003
         MNOTE 8,'***  IHB354  HEADER BYTE NOT 0-11; 0 ASSUMED'         12000000
&NAME    DC    0H'0',X'60',AL1(&I)                                      15000003
         AGO   .END                                                     18000003
.TH1     ANOP                                                           21000003
&NAME    DC    0H'0',AL.4(6),AL.4(&H),AL1(&I)                           24000003
.END     MEND                                                           27000003
