         MACRO                                                          03000003
&NAME    TI    &DL,&I              TEST WR FROM IMMEDIATE DATA          06000003
         GBLC  &DEF3890(250)                                   @ZA00766 07000003
         GBLA  &VAL3890(250)                                   @ZA00766 08000003
         LCLA  &LD,&V,&RL,&M                                   @ZA00766 09000003
         LCLC  &LABEL                                          @ZA00766 09200003
&M       SETA  1                                               @ZA00766 09400003
&V       SETA  &I                                                       09600003
         AIF   (&V LE 65535).TI0                                        10200003
         MNOTE 8,'***  IHB421 IMMEDIATE VALUE EXCEEDS ALLOWED MAXIMUM'  10800003
.TI0     ANOP                                                           11400003
         AIF   (N'&DL EQ 1).TI3    DL WAS EQU'D                         12000003
         AIF   ('&DL(1)' LT '16').TI1                                   15000003
         MNOTE 12,'***  IHB349  DISPLACEMENT NOT 0-15 DIGITS'           18000003
.TI1     AIF   ('&DL(2)' NE '0' AND '&DL(2)' LT '5').TI2                21000003
         MNOTE 12,'***  IHB351  LENGTH NOT 1-4 DIGITS'                  24000003
.TI2     ANOP                                                           27000003
&LD      SETA  16*&DL(1)+&DL(2)-1                                       30000003
&NAME    DC    0H'0',X'46',AL1(&LD),AL2(&I)                             33000003
         AGO   .END                                                     36000003
.TI3     ANOP                                                           39000003
.CI7     AIF   (&M GT 250).CI8                                 @ZA00766 39300003
&LABEL   SETC  '&DEF3890(&M)'                                  @ZA00766 39600003
.CI5     AIF   ('&DL'   EQ '&LABEL').CI6                       @ZA00766 39900003
&M       SETA  &M+1                                            @ZA00766 40200003
         AGO   .CI7                                            @ZA00766 40500003
.CI8     ANOP                                                  @ZA00766 40800003
         MNOTE 12,'***   IHB425 &DL NOT EQUATED IN DWF MACRO'  @ZA00766 41100003
.CI6     ANOP                                                  @ZA00766 41400003
&RL      SETA  &VAL3890(&M)                                    @ZA00766 41700003
&NAME    DC    0H'0',X'46',AL1(&RL),AL2(&I)                    @ZA00766 42000003
.END     MEND                                                           45000003
