*********************************************************************** 00001600
*PROPRIETARY V3 STATEMENT                                             * 00003600
*LICENSED MATERIALS - PROPERTY OF IBM                                 * 00005600
*"RESTRICTED MATERIALS OF IBM"                                        * 00007600
*5695-DF1                                                             * 00009600
*(C) COPYRIGHT 1992  IBM CORP.                                        * 00011600
*END PROPRIETARY V3 STATEMENT                                         * 00014600
*********************************************************************** 00017600
         MACRO                                                          00020000
&NAME    TRUNC  &DCB,&DUMMY=                                            00040000
         AIF   ('&DCB' EQ '').E1                                        00060000
&NAME    IHBINNRA &DCB                                                  00080000
         SR    15,15                                                    00093300
         ICM   15,B'0111',49(1)                  LOAD REG 15 FROM DCB   00106600
         BAL   14,8(0,15)                        LINK TO TRUNC ROUTINE  00120000
         MEXIT                                                          00140000
.E1      IHBERMAC 6                     DCB MISSING                     00160000
         MEND                                                           00180000
