*%/* MACCOMP Y-2 SC1D0/SJD48                                            00007200
*    MACSTAT Y-2 73078/021160                                           00014400
*********************************************************************** 00021600
*PROPRIETARY V3 STATEMENT                                             * 00023800
*LICENSED MATERIALS - PROPERTY OF IBM                                 * 00026000
*"RESTRICTED MATERIALS OF IBM"                                        * 00028200
*5695-DF1                                                             * 00030400
*(C) COPYRIGHT 1992  IBM CORP.                                        * 00032600
*END PROPRIETARY V3 STATEMENT                                         * 00034800
*********************************************************************** 00037600
         MACRO                                                          00038800
&NAME    WRITE &DECB,&TYPE,&DCB,&ADDR,&LENGTH,&KEY,&RCDREF,&MF=I,      *00040000
               &RPL=,&ACB=,&AREA=,&AREALEN=,&RECLEN=,&AAREA=,    Y02072*00050000
               &AAREALN=,&ARECLEN=,&ECB=,&EXIT=,                 Y02072*00052000
               &OPTCD=,&ARG=,&BRANCH=                           ZM30024 00056000
         GBLB  &IHBWR,&IHBT(2),&IHBS(4)                                 00060000
         LCLB  &ERR(2)                                                  00064000
         AIF   ('&RPL' NE '').VTAM      ISSUE VTAM WRITE         Y02072 00066000
&ERR(1)  SETB  ('&DECB' EQ '')                                          00068000
&ERR(2)  SETB  ('&TYPE' EQ '')                                          00072000
         AIF   (&ERR(2)).E0                                             00076000
&IHBS(1) SETB  (K'&TYPE EQ 1)                                           00080000
&IHBS(2) SETB  (K'&TYPE EQ 2)                                           00100000
&IHBS(3) SETB  (K'&TYPE EQ 3)                                           00120000
&IHBS(4) SETB  (K'&TYPE EQ 4)                                           00140000
&IHBWR   SETB  1                                                        00160000
&IHBT(1) SETB  (T'&LENGTH EQ 'N')                                       00180000
&IHBT(2) SETB  (T'&RCDREF EQ 'N')                                       00200000
         AIF   ('&TYPE'(1,1) EQ 'S').BSAMR                              00260000
         AIF   ('&TYPE'(1,1) EQ 'K').BISAMR                             00280000
         AIF   ('&TYPE'(1,1) EQ 'D').BDAMR                              00300000
         AIF   ('&TYPE'(1,1) EQ 'T').BTAMR                              00320000
         IHBERMAC 63,,&TYPE             TYPE INVALID                    00340000
         AGO   .E0                                                      00360000
.BSAMR   AIF   (&ERR(1)).E0                                             00380000
&NAME    IHBRDWRS &DECB,&TYPE,&DCB,&ADDR,&LENGTH,&KEY,&RCDREF,MF=&MF    00400000
         MEXIT                                                          00420000
.BISAMR  AIF   (&ERR(1)).E0                                             00440000
&NAME    IHBRDWRK &DECB,&TYPE,&DCB,&ADDR,&LENGTH,&KEY,&RCDREF,MF=&MF    00460000
         MEXIT                                                          00480000
.BTAMR   AIF   (&ERR(1)).E0                                             00500000
&NAME    IHBRDWRT &DECB,&TYPE,&DCB,&ADDR,&LENGTH,&KEY,&RCDREF,MF=&MF    00520000
         MEXIT                                                          00540000
.BDAMR   AIF   (&ERR(1)).E0                                             00560000
&NAME    IHBRDWRD &DECB,&TYPE,&DCB,&ADDR,&LENGTH,&KEY,&RCDREF,MF=&MF    00580000
         MEXIT                                                          00600000
.VTAM    ANOP                                                    Y02072 00650000
&IHBWR   SETB  1                      SET FOR ALL WRITES         Y02072 00700000
&NAME    IHBRDWRA ACB=&ACB,AREA=&AREA,AREALEN=&AREALEN,          Y02072*00800000
               RECLEN=&RECLEN,AAREA=&AAREA,AAREALN=&AAREALN,     Y02072*00850000
               ARECLEN=&ARECLEN,ECB=&ECB,EXIT=&EXIT,ARG=&ARG,    Y02072*00900000
               OPTCD=&OPTCD,                                     Y02072*00950000
               IHBRW=X'11',RPL=&RPL,BRANCH=&BRANCH              ZM30024 01000000
         MEXIT                                                   Y02072 01050000
.E0      AIF   (NOT &ERR(1)).E1                                         10600000
         IHBERMAC 07                    &DECB MISSING                   20600000
.E1      AIF   (NOT &ERR(2)).MEND                                       30600000
         IHBERMAC 25                    &TYPE MISSING                   40600000
.MEND    MEND                                                           50600000
**/ WRITE: MACRO KEYS(1:1(DECB_ADDR,DECB_NAME),                         50650000
*              1:1(REQUEST_TYPE),                                       50700000
*              0:1(DCB_ADDR,DCB_NAME),                                  50750000
*              0:1(AREA_ADDR,AREA_NAME,DYNAMIC_BUFFER_ADDR),            50800000
*                  AREA_LENGTH,                                         50850000
*              0:1(KEY_ADDR,KEY_NAME),                                  50900000
*              0:1(BLOCKID_ADDR,BLOCKID_NAME),                          50950000
*              0:1(NEXT_BLOCKID_ADDR,NEXT_BLOCKID_NAME),                51000000
*                  RETCODE,                                             51050000
*                  MF);                                                 51100000
*  ANS('?' || MACLABEL || ' WRITEP ' || MACKEYS || ';') RESCAN SKIP;    51150000
*  %END WRITE;                                                          51200000
