* %/*                                                          @ZMC0828 00050000
         MACRO                                                          00250002
&NAME    WTO   &MESG,&MF=I,&ROUTCDE=,&DESC=,&MSGTYP=,&MCSFLAG=,&QID=,  X00280000
               &AREAID=,&SUBSMOD=,&CONNECT=^,&CONSID=^,&JOBID=^,       X00310000
               &JOBNAME=^,&KEY=^,&TOKEN=^,&PRTY=^,&SYSNAME=^,          X00340000
               &WQEBLK=^,&CONSNAME=^,&CART=^,&TEXT=^,&LINKAGE=^,       +00360000
               &SYNCH=^,&WSPARM=^                                  @01C 00380000
.***START OF SPECIFICATIONS******************************************** 00390500
.*                                                             @G64DPSS 00401064
.* MACRO NAME= WTO                                             @G860PSS 00401100
.*                                                             @G860PSS 00401200
.* DESCRIPTIVE NAME= WRITE TO OPERATOR (WTO)                   @G860PSS 00401500
.*                                                             @G860PSS 00401600
.* EXTERNAL CLASSIFICATION: GUPI                                        00401700
.* END OF EXTERNAL CLASSIFICATION:                                      00401800
.*                                                                      00401900
.**01* PROPRIETARY STATEMENT=                                         * 00402100
.* **PROPRIETARY_STATEMENT********************************************* 00402300
.*                                                                    * 00402500
.*                                                                    * 00402700
.*  LICENSED MATERIALS - PROPERTY OF IBM                              * 00402900
.*  THIS MACRO IS "RESTRICTED MATERIALS OF IBM"                       * 00403100
.*  5647-A01 (C) COPYRIGHT IBM CORP. 1981, 1999                       * 00403300
.*                                                                    * 00403500
.*  STATUS= JBB6607                                                   * 00403700
.*                                                                    * 00403900
.* **END_OF_PROPRIETARY_STATEMENT************************************** 00404100
.*                                                                      00404800
.*                                                                      00406000
.* INVOCATION =                                                    @L2C 00406200
.*             SPECIFY:   WTO MESG,ROUTCDE=,DESC=,MSGTYP=,     @G64DPSS 00406400
.*                            MCSFLAG=,QID=,AREAID=,MF=,           @L2C 00406700
.*                            CONNECT=,CONSID=,JOBID=,             @D2C 00406800
.*                            PRTY=,KEY=,TOKEN=,SYSNAME=,          @L2A 00406900
.*                            SUBSMOD=,JOBNAME=,                   @01C 00407000
.*                            CONSNAME=,CART=,TEXT=,LINKAGE=,      @L6C 00407100
.*                            SYNCH=,WSPARM=                       @L6A 00407200
.*                                                                      00407300
.*                                     OR                          @L2A 00407400
.*                                                                      00407500
.*                        WTO WQEBLK=                              @L2A 00407600
.*                                                                      00407700
.*              WHERE:                                         @G64DPSS 00408264
.*                MESG     THE MESSAGE TEXT FOR A SINGLE OR    @G64DPSS 00409164
.*                         MULTIPLE LINE MESSAGE TO BE         @G64DPSS 00410064
.*                         WRITTEN.                            @G64DPSS 00410964
.*                ROUTCDE= ROUTING CODES TO BE ASSIGNED TO THE @G64DPSS 00411864
.*                         MESSAGE.                            @G64DPSS 00412764
.*                                                             @G64DPSS 00413664
.*                DESC=    DESCRIPTOR CODES TO BE ASSIGNED TO  @G64DPSS 00414564
.*                         THE MESSAGE.                        @G64DPSS 00415464
.*                                                             @G64DPSS 00416364
.*                MSGTYP=  SPECIFIES HOW THE MESSAGE IS TO BE  @G64DPSS 00417264
.*                         ROUTED. VALID VALUES ARE:           @G64DPSS 00418164
.*                           N, Y, SESS, JOBNAMES, STATUS      @G64DPSS 00419400
.*                                                             @G64DPSS 00420864
.*                MCSFLAG= SPECIFIES ATTRIBUTES OF THE         @G64DPSS 00421764
.*                         MESSAGE. VALID VALUES ARE:          @G64DPSS 00422664
.*                           REG0, RESP, REPLY, BRDCST,        @G64DPSS 00423500
.*                           HRDCPY, QREG0, NOTIME, CMD, NOCPY,    @L2C 00424100
.*                           BUSYEXIT                              @D2C 00424700
.*                                                             @G64DPSS 00425364
.*                QID=     REMOTE ENTRY SERVICES (RSS) QUEUE   @G64DPSS 00426264
.*                         ID (OS/VS1 ONLY).                   @G64DPSS 00427164
.*                                                             @G64DPSS 00428064
.*                AREAID=  SPECIFIES A DISPLAY AREA ON THE     @G64DPSS 00428964
.*                         CONSOLE WHERE THE MESSAGE IS TO BE  @G64DPSS 00429864
.*                         WRITTEN.                            @G64DPSS 00430764
.*                                                             @G64DPSS 00431664
.*                MF=      SPECIFIES THE TYPE OF EXPANSION     @G64DPSS 00432564
.*                         REQUIRED. VALID VALUES ARE:         @G64DPSS 00433464
.*                           I, L, E                           @G64DPSS 00434300
.*                         IF NOT SPECIFIED, OR SPECIFIED WITHOUT  @L2A 00434500
.*                         DATA, STANDARD FORM (I-INLINE)          @L2A 00434700
.*                         ASSUMED.                                @L2A 00434900
.*                                                             @G64DPSS 00435264
.*                CONNECT= SPECIFIES THE 4-BYTE MESSAGE NUMBER     @L2A 00435300
.*                         OF THE MULTI-LINE WTO THAT THIS         @L2A 00435400
.*                         WTO IS TO BE CONNECTED TO.  IF A        @L2A 00435500
.*                         REGISTER IS USED, THE REGISTER          @L2A 00435600
.*                         CONTAINS THE MESSAGE NUMBER.  THIS      @L2A 00435700
.*                         KEYWORD IS MUTUALLY EXCLUSIVE WITH      @L2A 00435800
.*                         THE CONSID, CONSNAME AND                @01C 00435900
.*                         SYSNAME KEYWORDS.                       @L2A 00436000
.*                         ONLY VALID FOR CONTINUATION OF          @L2A 00436100
.*                         MULTI-LINE MESSAGES.                    @L2A 00436200
.*                                                                      00436300
.*                CONSID=  SPECIFIES THE 4-BYTE ID OF THE          @L2A 00436400
.*                         CONSOLE TO RECEIVE A MESSAGE.           @L2A 00436500
.*                         IF A REGISTER IS USED, THE REGISTER     @L2A 00436600
.*                         CONTAINS THE 4-BYTE ID.                 @L2A 00436700
.*                         THIS KEYWORD IS MUTUALLY EXCLUSIVE      @L2A 00436800
.*                         WITH THE CONNECT AND CONSNAME KEYWORD.  @L3C 00436900
.*                                                                      00437000
.*              CONSNAME=  SPECIFIES THE 8-BYTE NAME OF THE        @L3A 00437100
.*                         CONSOLE TO RECEIVE A MESSAGE.           @L3A 00437200
.*                         IF A REGISTER IS USED, THE REGISTER     @L3A 00437300
.*                         CONTAINS THE ADDRESS OF THE 8-BYTE      @L3A 00437400
.*                         CONSOLE NAME.                           @L3A 00437500
.*                         THIS KEYWORD IS MUTUALLY EXCLUSIVE      @L3A 00437600
.*                         WITH THE CONNECT AND CONSID KEYWORD.    @POC 00437700
.*                                                                      00437800
.*                JOBID=   SPECIFIES THE 8-BYTE ID WITH WHICH      @L2A 00437900
.*                         THE JES IDENTIFIES THE ISSUER OF        @L2A 00438000
.*                         THIS WTO.  THE KEYWORD IS FOR USE BY    @L2A 00438100
.*                         JES2 AND JES3.  IF A REGISTER IS USED,  @L2A 00438200
.*                         THE REGISTER CONTAINS THE ADDRESS OF    @L2A 00438300
.*                         THE 8-BYTE ID.                          @L2A 00438400
.*                                                                      00438500
.*                JOBNAME= SPECIFIES THE 8-BYTE NAME WITH WHICH    @L2A 00438600
.*                         THE JES IDENTIFIES THE ISSUER OF        @L2A 00438700
.*                         THIS WTO.  THE KEYWORD IS FOR USE BY    @L2A 00438800
.*                         JES2 AND JES3.  IF A REGISTER IS USED   @L2A 00438900
.*                         THE REGISTER CONTAINS THE ADDRESS OF    @L2A 00439000
.*                         THE 8-BYTE NAME.                        @L2A 00439100
.*                                                                      00439200
.*                SUBSMOD= INDICATES WHETHER THE CHARACTERISTICS   @L2A 00440100
.*                         OF THE MESSAGE ISSUED MAY BE CHANGED    @L2A 00440200
.*                         BY THE PRIMARY SUBSYSTEM.               @L2A 00440300
.*                         THE VALID VALUES ARE:                   @L2A 00440400
.*                                  YES - THIS IS THE DEFAULT      @L2A 00440500
.*                                  NO                             @L2A 00440600
.*                                                                      00440700
.*                PRTY=    SPECIFIES THE 2-BYTE PRIORITY TO BE     @L2A 00440800
.*                         ASSIGNED TO THIS MESSAGE. IF A          @L2A 00440900
.*                         REGISTER IS USED, THE 2 RIGHTMOST       @L2A 00441000
.*                         BYTES OF THE REGISTER CONTAIN THE       @L2A 00441100
.*                         2-BYTE VALUE.                           @L2A 00441200
.*                                                                      00441300
.*                KEY=     SPECIFIES AN 8-BYTE KEY TO BE           @L2A 00441400
.*                         ASSOCIATED WITH THIS MESSAGE.  IF A     @L2A 00441500
.*                         REGISTER IS USED, THE REGISTER          @L2A 00441600
.*                         SPECIFIES THE ADDRESS OF THE 8-BYTE     @L2A 00441700
.*                         KEY.                                    @L2A 00441800
.*                                                                      00441900
.*                TOKEN=   SPECIFIES A 4-BYTE TOKEN TO BE          @L2A 00442000
.*                         ASSOCIATED WITH THIS MESSAGE.  THE      @L2A 00442100
.*                         FIELD IS USED TO IDENTIFY A GROUP       @L2A 00442200
.*                         OF MESSAGES THAT CAN BE DELETED BY      @L2A 00442300
.*                         TOKEN.  THE TOKEN SHOULD BE UNIQUE      @L2A 00442400
.*                         WITHIN AN ADDRESS SPACE. IF A REGISTER  @L2A 00442500
.*                         IS USED, THE REGISTER CONTAINS THE      @L2A 00442600
.*                         4-BYTE VALUE.                           @L2A 00442700
.*                                                                      00442800
.*                SYSNAME= SPECIFIES AN 8-BYTE SYSTEM NAME TO BE   @L2A 00442900
.*                         ASSIGNED TO THIS MESSAGE.  IT IS THE    @L2A 00443000
.*                         SYSTEM NAME OF WHERE THIS WTO           @L2A 00443100
.*                         ORIGINATED.  IF A REGISTER IS           @L2A 00443200
.*                         USED, THE REGISTER CONTAINS THE         @L2A 00443300
.*                         ADDRESS OF THE 8-BYTE NAME. THIS        @L2A 00443400
.*                         KEYWORD IS MUTUALLY EXCLUSIVE WITH      @L2A 00443500
.*                         THE CONNECT KEYWORD.                    @L2A 00443600
.*                                                                      00444600
.*                CART=    SPECIFIES THE 4-BYTE ADDRESS OF AN      @L4A 00444700
.*                         EIGHT BYTE COMMAND AND RESPONSE TOKEN   @L4A 00444800
.*                         TO BE ASSOCIATED WITH THIS MESSAGE. THE @L4A 00444900
.*                         CART IS USED TO ASSOCIATE A WTO         @L4A 00445000
.*                         RESPONSE WITH THE ORIGINATING COMMAND.  @L4A 00445100
.*                         IF A REGISTER IS USED, THE REGISTER     @L4A 00445200
.*                         CONTAINS THE 4-BYTE ADDRESS VALUE.      @L4A 00445300
.*                         IF AN 8-BYTE FIELD IS USED, THE ADDRESS @L4A 00445400
.*                         OF THE FIELD IS STORED IN THE WPL.      @L4A 00445500
.*                                                                      00445600
.*                TEXT=    SPECIFIES A DATA AREA                   @PEA 00445700
.*                         CONTAINING A 2 BYTE MESSAGE LENGTH      @L5A 00445800
.*                         FIELD FOLLOWED BY THE ACTUAL MESSAGE    @L5A 00445900
.*                         TEXT. IF A REGISTER IS USED, THE        @L5A 00446000
.*                         REGISTER CONTAINS THE ADDRESS OF THE    @L5A 00446100
.*                         DATA AREA. IF A FIELD IS USED, THE      @L5A 00446200
.*                         ADDRESS OF THE FIELD IS STORED IN       @L5A 00446300
.*                         THE WPL. THE TEXT KEYWORD IS            @L5A 00446400
.*                         MUTUALLY EXCLUSIVE WITH INLINE          @L5A 00446500
.*                         MESSAGE TEXT. EITHER TEXT OR INLINE     @L5A 00446600
.*                         TEXT (BUT NOT BOTH) IS REQUIRED ON      @L5A 00446700
.*                         THE STANDARD OR LIST FORM OF WTO.       @L5A 00446800
.*                                                                 @L5A 00446900
.*                WQEBLK=  SPECIFIES A WQE CONTROL BLOCK TO BE     @L2A 00447000
.*                         USED AS INPUT FOR THE WTO.  IF A        @L2A 00447100
.*                         REGISTER IS USED, THE REGISTER          @L2A 00447200
.*                         SPECIFIES THE ADDRESS OF THE WQE        @L2A 00447300
.*                         CONTROL BLOCK TO BE USED AS INPUT TO    @L2A 00447400
.*                         THE WTO.  THIS KEYWORD IS MUTUALLY      @L2A 00447500
.*                         EXCLUSIVE WITH ALL OTHER KEYWORDS.      @L2A 00447600
.*                         THIS KEYWORD IS ONLY VALID ON THE       @L2A 00447700
.*                         STANDARD FORM (MF=I) OF THE MACRO.      @L2A 00447800
.*                         STANDARD FORM OF THE MACRO.             @L2A 00447900
.*                                                                      00448000
.*               LINKAGE=  SPECIFIES HOW CONTROL IS TO PASS TO THE @L6A 00448100
.*                         WTO FUNCTION.                           @L6A 00448200
.*                         THE VALID VALUES ARE-                   @L6A 00448300
.*                              BRANCH                             @L6A 00448400
.*                              SVC - THIS IS THE DEFAULT          @L6A 00448500
.*                                                                      00448600
.*                 SYNCH=  SPECIFIES WHETHER THE WTO REQUEST IS TO @L6A 00448700
.*                         BE PROCESSED SYNCHRONOUSLY WITH RESPECT @L6A 00448800
.*                         TO THE CALLER.  "SYNCH=YES" IS MUTUALLY @L6A 00448900
.*                         EXCLUSIVE WITH THE CONNECT, AREAID,     @L6A 00449000
.*                         KEYWORDS AND WITH "MCSFLAG=HRDCPY"      @L6A 00449100
.*                         THE VALID VALUES ARE-                   @L6A 00449200
.*                              YES                                @L6A 00449300
.*                              NO  - THIS IS THE DEFAULT          @L6A 00449400
.*                                                                      00449500
.*                WSPARM=  SPECIFIES WHETHER A WAIT STATE IS       @L6A 00449600
.*                         ASSOCIATED WITH THE MESSAGE. IF NO      @L6A 00449700
.*                         WAIT STATE IS ASSOCIATED WITH THE       @L6A 00449800
.*                         MESSAGE THE VALUE WILL BE 0 (THE        @L6A 00449900
.*                         DEFAULT).  IF A NON-ZERO VALUE IS       @L6A 00450000
.*                         SPECIFIED THEN IT IS EITHER THE         @L6A 00450100
.*                         ADDRESS OF THE WAIT STATE PARAMETER     @L6A 00450200
.*                         LIST OR A REGISTER CONTAINING A         @L6A 00450300
.*                         POINTER TO THE PARAMETER LIST.          @L6A 00450400
.*                         WSPARM REQUIRES SYNCH=YES.              @L6A 00450500
.*                                                                      00450600
.*                                                                      00450700
.* FUNCTION =                                                      @L2C 00450800
.*      BUILDS A WRITE TO OPERATOR PARAMETER LIST              @G64DPSS 00450900
.*      (WPL) AND/OR THE CODE WHICH WILL INVOKE SVC 35         @G64DPSS 00451000
.*      OR A BRANCH ENTRY WTO TO ISSUE THE MESSAGE.                @L6C 00451100
.*                                                             @G64DPSS 00451200
.* OPERATION =                                                     @L2A 00451300
.*      - PERFORM APPROPRIATE PARAMETER LIST GENERATION IF         @L2A 00451400
.*           WQEBLK KEYWORD IS SPECIFIED                           @L2A 00451500
.*      - IF EXECUTE FORM SPECIFIED, INSERT RUN-TIME KEYWORD       @L2A 00451600
.*           VALUES INTO THE ALREADY-EXISTING PARAMETER LIST       @L2A 00451700
.*      - IF NO NEW OR CHANGED KEYWORDS SPECIFIED, GENERATE        @L2A 00451800
.*           STANDARD FORM OF THE WPL                              @L2A 00451900
.*      - GENERATE AN EXTENDED FORMAT WPL (WPX) WHEN ANY           @L2A 00452000
.*           NEW OR CHANGED KEYWORDS ARE SPECIFIED.                @L2A 00452100
.*      - IF THIS IS A MULTI-LINE WTO, GENERATE THE MULTI-LINE     @L2A 00452200
.*           SECTION OF THE WPL                                    @L2A 00452300
.*      - IF LINKAGE=BRANCH WAS SPECIFIED GENERATE CODE FOR BRANCH @L6A 00452400
.*           ENTRY TO IEAVBWTO.  OTHERWISE ISSUE THE SVC.          @L6A 00452500
.*                                                                      00452600
.* USAGE =                                                         @L2A 00452700
.*      ANY PROGRAM MAY USE THIS MACRO TO BUILD THE WTO            @L2A 00452800
.*      PARAMETER LIST.  HOWEVER, WQEBLK, JOBID, SYSNAME,          @L2A 00452900
.*      JOBNAME, SUBSMOD, PRTY, LINKAGE, SYNCH, AND                @01C 00453000
.*      WSPARM ARE FOR CONTROL PROGRAM USE ONLY.                   @L6C 00453100
.*                                                                      00453200
.* RESTRICTIONS =                                                  @PFA 00453300
.*                                                                 @PFA 00453600
.*    "LINKAGE" SPECIFIED AS OR DEFAULTED TO "SVC" REQUIRES        @PFA 00453700
.*      THE CALLER TO:                                             @PFA 00453800
.*      - BE IN TASK MODE                                          @PFA 00453900
.*      - HOLD NO LOCKS                                            @PFA 00454000
.*      - BE ENABLED FOR INTERRUPTS                                @PFA 00454100
.*      - BE IN PRIMARY ASC MODE                                   @PFA 00454200
.*      - BE IN NON-CROSS-MEMORY MODE                              @PFA 00454300
.*      - "AUTHORIZED" PARAMETERS REQUIRE SUPERVISOR STATE,        @PFA 00454400
.*         PROTECT KEY 0-7.                                        @PFA 00454500
.*                                                                 @PFA 00454600
.*    "LINKAGE=BRANCH" CAN BE USED-                                @PFA 00454700
.*      WHEN IN SRB MODE-                                          @PFA 00454800
.*        A WTO ISSUED FROM SRB MODE WILL NOT HAVE A JOBNAME OR    @PFA 00454900
.*        JOBID ASSOCIATED WITH IT.                                @PFA 00455000
.*        IT WILL NOT BE AUTOMATICALLY DOM'D WHEN THE TASK ENDS.   @PFA 00455100
.*      WHEN DISABLED FOR INTERRUPTS-                              @PFA 00455200
.*        WTO PARAMETER LIST AND ALL STORAGE ADDRESSED BY IT       @PFA 00455300
.*        MUST BE IN FIXED OR DREF STORAGE.                        @PFA 00455400
.*      WHEN LOCKS HELD                                            @PFA 00455500
.*      WHEN THE PRIMARY ADDRESS SPACE IS NOT THE SAME AS          @PFA 00455600
.*      THE HOME ADDRESS SPACE-                                    @PFA 00455700
.*        CALLER MUST BE IN PRIMARY ASC MODE.                      @PFA 00455800
.*                                                                 @PFA 00455900
.*    IF "LINKAGE=BRANCH" IS SPECIFIED-                            @PFA 00456000
.*        WQEBLK KEYWORD CANNOT BE SPECIFIED, ABEND IF ATTEMPTED   @PFA 00456100
.*        MESSAGE TEXT MAY NOT CONTAIN DBCS DATA.                  @PFA 00456200
.*        CALLER MUST BE IN SUPERVISOR STATE, PROTECT KEY 0-7.     @PFA 00456300
.*        CALLER MUST BE IN PRIMARY ASC MODE.                      @PFA 00456400
.*                                                                 @PFA 00456500
.*    IF "WSPARM" IS SPECIFIED AS NONZERO-                         @PFA 00456600
.*        "LINKAGE=BRANCH" RESTRICTIONS APPLY, PLUS                @PFA 00456700
.*         ALL INPUT STORAGE MUST BE FIXED. (WTO PARAMETER         @PFA 00456800
.*         LIST AND ANY STORAGE ADDRESSESED BY IT, SUCH AS         @PFA 00456900
.*         TEXT DATA OR CART, PLUS THE LOADWAIT PARAMETER          @PFA 00457000
.*         LIST POINTED TO BY WSPARM).                             @PFA 00457100
.*                                                                      00457200
.* DEPENDENCIES =                                                  @L2A 00457300
.*      - LIST AND EXECUTE FORM MUST REFERENCE THE SAME VERSION    @L2A 00457400
.*           OF THE PARAMETER LIST (WPL)                           @L2A 00457500
.*      - THE LENGTH OF THE WPX IS MAINTAINED IN A ONE BYTE FIELD  @L5A 00457600
.*        WITHIN THE WPX. WHENEVER THE LENGTH OF THE WPX CHANGES   @L5A 00457700
.*        THIS FIELD MUST BE UPDATED.                              @L5A 00457800
.*                                                                      00457900
.* MODULE TYPE = MACRO                                             @L2A 00458000
.*                                                                      00458100
.* ENTRY POINT = N/A                                               @L2A 00458200
.*                                                                      00458300
.* INPUT = SEE INVOCATION                                          @L2A 00458400
.*                                                                      00458500
.* OUTPUT =                                                        @L2A 00458600
.*      PARAMETER LIST TO ISSUE SVC 35 OR BALR AND/OR THE          @L6C 00458700
.*      INSTRUCTIONS REQUIRED TO MODIFY THE PARAMETER              @L2A 00458800
.*      LIST AND ISSUE SVC 35 OR BALR TO IEAVBWGL.                 @L6A 00458900
.*                                                                      00459000
.* EXIT, NORMAL                                                    @L2A 00459100
.*   CONDITION - NO ERRORS DETECTED BY THE WTO MACRO               @L2A 00459200
.*   OUTPUT    - NO MNOTE ISSUED. SEVERITY CODE = 0                @L2A 00459300
.*                                                                      00459400
.* EXIT, NORMAL                                                    @L2A 00459500
.*   CONDITION - INFORMATIONAL MNOTE CONDITION DETECTED BY THE     @L2A 00459600
.*                 WTO MACRO                                       @L2A 00459700
.*   OUTPUT    - MNOTE WITH SEVERITY CODE 0 ISSUED WHEN:           @L6C 00459800
.*                .DATA IS SPECIFIED FOR A RUN-TIME KEYWORD ON A   @L6C 00459900
.*                 LIST FORM INVOCATION. THE DATA IS IGNORED.      @L2A 00460000
.*                .LINE TYPE DATA IS SPECIFIED WITH THE TEXT       @PKA 00460100
.*                 KEYWORD ON AN EXECUTE FORM INVOCATION.          @PKA 00460200
.*                 THE LINE TYPE DATA IS IGNORED.                  @PKA 00460300
.*                .A LINE OF INLINE TEXT IS LONGER THAN THE        @PMM 00460400
.*                   DOCUMENTED ALLOWED MAXIMUM LENGTH.            @PMM 00460500
.*                                                                      00460600
.* EXIT, NORMAL                                                    @L2A 00460700
.*   CONDITION - WARNING CONDITION DETECTED BY THE WTO MACRO       @L2A 00460800
.*   OUTPUT    - MNOTE WITH SEVERITY CODE 4 ISSUED WHEN:           @L2A 00460900
.*                .A RUN-TIME KEYWORD IS SPECIFIED WITHOUT DATA    @L2A 00461000
.*                   DURING A STANDARD OR EXECUTE FORM INVOCATION. @L2A 00461100
.*                   THE KEYWORD IS IGNORED.                       @L2A 00461200
.*                .AN INVALID ROUTING CODE IS SPECIFIED            @L2A 00461300
.*                .AN INVALID RANGE OF ROUTING CODES IS SPECIFIED  @L2A 00461400
.*                .RESERVED ROUTING CODES (29-40) ARE          @YA10057 00461500
.*                   SPECIFIED                                 @YA10057 00461600
.*                .AN INVALID SUBSMOD KEYWORD VALUE IS SPECIFIED   @L2A 00461700
.*                .THE BUSYEXIT PARAMETER IS USED ON A WTOR        @L2A 00461800
.*                .AN INVALID DESCRIPTOR CODE IS SPECIFIED         @L2A 00461900
.*                .INVALID OR MUTUALLY EXCLUSIVE MCSFLAG           @L2A 00462000
.*                   VALUES ARE SPECIFIED                          @L2A 00462100
.*                .AN INVALID MSGTYPE VALUE IS SPECIFIED           @L2A 00462200
.*                .AN INVALID QID VALUE IS SPECIFIED               @L2A 00462300
.*                .MORE THAN ONE ARGUMENT CODED WITH EITHER THE    @L6A 00462400
.*                   LINKAGE, SYNCH, OR WSPARM KEYWORDS.           @L6A 00462500
.*                                                                      00462600
.* EXIT, ERROR                                                     @L2A 00462700
.*   CONDITION - TERMINATING ERROR CONDITION DETECTED BY           @L2A 00462800
.*                 THE WTO MACRO                                   @L2A 00462900
.*   OUTPUT    - MNOTE WITH SEVERITY CODE 12 ISSUED WHEN:          @L2A 00463000
.*                .THE WQEBLK KEYWORD IS SPECIFIED ALONG WITH      @L2A 00463100
.*                   OTHER KEYWORDS                                @L2A 00463200
.*                .THE CONNECT KEYWORD IS SPECIFIED ALONG WITH     @L2A 00463300
.*                   EITHER THE SYSNAME, CONSID OR                 @01C 00463400
.*                   CONSNAME.                                     @L3A 00463500
.*                .THE CONSID KEYWORD IS SPECIFIED ALONG WITH      @L3A 00463600
.*                   THE CONSNAME KEYWORD.                         @L3A 00463700
.*                .THE CONNECT KEYWORD IS SPECIFIED ON A           @L2A 00463800
.*                   SINGLE-LINE WTO                               @L2A 00463900
.*                .THE NUMBER OF TEXT LINES REQUESTED IS EITHER    @L2A 00464000
.*                   ZERO OR GREATER THAN 255                      @L2A 00464100
.*                .THE TEXT KEYWORD IS SPECIFIED ALONG WITH        @L5A 00464200
.*                   INLINE MESSAGE TEXT.                          @L5A 00464300
.*                .SYNCH=YES WITH MORE THAN 14 LINES OF TEXT.      @L6A 00464400
.*                .SYNCH=YES SPECIFIED ALONG WITH CONNECT OR       @L6A 00464500
.*                   AREAID KEYWORDS.                              @L6A 00464600
.*                .SYNCH=YES SPECIFIED WITH MCSFLAG=HRDCPY         @L6A 00464700
.*                .SYNCH=YES SPECIFIED WITHOUT LINKAGE=BRANCH      @L6A 00464800
.*                     ON STANDARD OR EXECUTE FORM.                @P9A 00464900
.*                .WSPARM ^= 0 SPECIFIED WITHOUT SYNCH=YES         @P9C 00465000
.*                     OR  WITHOUT LINKAGE=BRANCH ON STANDARD      @P9C 00465100
.*                     OR EXECUTE FORM.                            @P9A 00465200
.*                                                                      00465300
.* EXTERNAL REFERENCES = N/A                                       @L2A 00465400
.*                                                                      00465500
.* TABLES = N/A                                                    @L2A 00465600
.*                                                                      00465700
.* MACROS =                                                        @L2A 00465800
.*      THE PARAMETER LIST GENERATED BY THIS MACRO IS MAPPED       @L2A 00465900
.*      BY THE MACRO IEZWPL. HOWEVER, IEZWPL IS NOT REQUIRED       @L2A 00466000
.*      TO USE THIS MACRO.                                         @L2A 00466100
.*                                                                      00466200
.* CHANGE ACTIVITY =                                           @G64DPSS 00466300
.*              G64DPSS,OZ43167,G860PSS,ZMC0828                @ZMC0828 00466400
.* $D1=DCR7,     JBB2110, 820831, PDSJ: MULTILINE WTP SUPPORT           00466500