*/* COPYRIGHT = 5647-A01                                             */ 00050000
*/*            THIS MODULE IS "RESTRICTED MATERIALS OF IBM"          */ 00100000
*/*            (C) COPYRIGHT IBM CORP. 1988, 2000                    */ 00150000
*/*            LICENSED MATERIALS - PROPERTY OF IBM                  */ 00200000
*/*                                                                  */ 00350000
*/* STATUS  = HBB7703                                                */ 00370000
*/*                                                                  */ 00390000
*/*01* EXTERNAL CLASSIFICATION: PI                                   */ 00410000
*/*01* END OF EXTERNAL CLASSIFICATION:                               */ 00430000
*/*                                                                  */ 00450000
*/* CHANGE ACTIVITY =                                                */ 00500000
*/*   $L1 =    AR    HBB3310 850901 PDXB: AR SUPPORT                 */ 00550000
*/*   $L2= 64BITCSV  HBB7703 981204 PD00XB: ESAME                    */ 00575000
*%/*                                                                    00600000
         MACRO                                                          00650000
&NAME    XCTLX &REG,&EP=,&EPLOC=,&DE=,&DCB=,&PARAM=,&VL=,&HIARCHY=,    X00700000
               &SF=I,&MF=I,&LSEARCH=,&PLIST8=,&PLIST4=             @L2C 00750000
.********************************************************************** 00800000
.*                                                                    * 00850000
.* NAME = XCTLX                                                       * 00900000
.*                                                                    * 00950000
.********************************************************************** 01000000
         GBLB  &IHBSWA,&IHBSWB                                @G381P2A  01050000
         GBLC  &SYSAM64              AMODE 64                      @L2A 01060000
         SYSSTATE TEST                                             @L2A 01070000
         GBLC  &SYSPLIST8            8-BYTE PARAMETER LIST         @L2A 01080000
         LCLC  &SAVEPLIST8           SAVED VALUE                   @L2A 01090000
         LCLA  &CTR                                           @G381P2A  01100000
&SAVEPLIST8 SETC '&SYSPLIST8'                                      @L2A 01101700
&SYSPLIST8 SETC ''                                                 @L2A 01103400
.********************************************************************** 01105100
.*   VALIDATE PLIST4, PLIST8                                          * 01106800
.********************************************************************** 01108500
         AIF   ('&PLIST8' EQ '').PLIST8END                         @L2A 01110200
         AIF   ('&PLIST8' EQ 'YES' OR '&PLIST8' EQ 'NO').PLIST8END @L2A 01111900
         IHBERMAC 1001,PLIST8,&PLIST8                              @L2A 01113600
         AGO   .EXIT                                               @L2A 01115300
.PLIST8END ANOP                                                    @L2A 01117000
         AIF   ('&PLIST4' EQ '').PLIST4END                         @L2A 01118700
         AIF   ('&PLIST4' EQ 'YES' OR '&PLIST4' EQ 'NO').PLIST4END @L2A 01120400
         IHBERMAC 1001,PLIST4,&PLIST4                              @L2A 01122100
         AGO   .EXIT                                               @L2A 01123800
.PLIST4END ANOP                                                    @L2A 01125500
         AIF   ('&PLIST8' EQ '' OR '&PLIST4' EQ '').PLIST84END     @L2A 01127200
         IHBERMAC 1304,PLIST4,PLIST8                               @L2A 01128900
.PLIST84END ANOP                                                   @L2A 01130600
         AIF   ('&PLIST8' EQ 'YES').YESPL8                         @L2A 01132300
         AIF   ('&PLIST4' EQ 'NO').YESPL8                          @L2A 01134000
         AIF   ('&SYSAM64' EQ 'YES').YESPL8                        @L2A 01135700
         AIF   ('&PLIST8' NE 'YES').NOPL8                          @L2A 01137400
.YESPL8  ANOP                                                      @L2A 01139100
&SYSPLIST8 SETC 'YES'                                              @L2A 01140800
.NOPL8   ANOP                                                      @L2A 01142500
         AIF   ('&PLIST4' NE 'YES').NOPL4                          @L2A 01144200
&SYSPLIST4 SETC ''                                                 @L2A 01145900
.NOPL4   ANOP                                                      @L2A 01147600
&IHBSWA  SETB  ('&VL' EQ '1')                                           01150000
&IHBSWB  SETB  1                                                        01200000
         AIF   ('&PARAM&VL' NE '' AND '&MF(1)' NE 'E').E1               01250000
         AIF   ('&MF' EQ 'L').E2                                        01300000
         AIF   ('&SF' EQ 'L' AND '&MF&PARAM&VL&REG' NE 'I').E3          01350000
         AIF   ('&HIARCHY' NE '').E0                                    01400000
.CONT    AIF   ('&NAME' EQ '' OR '&SF' EQ 'L').CONTA                    01450000
&NAME    DS    0H                                                       01500000
.CONTA   AIF   ('&MF(1)' NE 'E').CONTB                                  01550000
.PROCESS ANOP                                                 @G381P2A  01600000
         IHBOPLTX  ,&PARAM,MF=&MF                             @G381P2A  01650000
.CONTB   ANOP                                                 @G381P2A  01700000
&NAME    IHBINNRY &EP,&EPLOC,&DE,&DCB,&LSEARCH,               @G381P2A X01750000
               XCTL,&PARAM,&MF,                               @G381P2A X01800000
               SF=&SF,                                        @G381P2A X01833300
               PLIST4=&PLIST4,PLIST8=&PLIST8                       @L2C 01866600
.CONTC   ANOP                                                 @G381P2A  01900000
         AIF   ('&SF' EQ 'L').EXIT                                      01950000
         AIF   ('&REG' EQ '').SVC                                       02000000
         AIF   (T'&REG(1) NE 'N').E4                                    02050000
         AIF   (&REG(1) LT 2 OR &REG(1) GT 12).E4                       02100000
         AIF   (N'&REG EQ 1).CONTD                             @G381P2A 02150000
         AIF   (N'&REG NE 2).E4                                         02200000
         AIF   (T'&REG(2) NE 'N').E4                                    02250000
         AIF   (&REG(2) LE &REG(1) OR &REG(2) GT 12).E4                 02300000
&CTR     SETA  &REG(1)*4+20                                             02350000
         LM    &REG(1),&REG(2),&CTR.(13)         RESTORE REGISTERS      02400000
         AGO   .SVC                                                     02450000
.CONTD   ANOP                                                 @G381P2A  02500000
&CTR     SETA  &REG(1)*4+20                                   @G381P2A  02550000
         L     &REG(1),&CTR.(0,13)           RESTORE REGISTER @G381P2A  02600000
.SVC     ANOP                                                 @G381P2A  02650000
         LA    15,8                XCTL EXTENDED SVC ROUTING CODE       02700000
.*                                                            @G381P2A  02750000
         SVC   122                 ISSUE EXTENDED SVC         @G381P2A  02800000
         AGO   .EXIT                                                    02850000
.E0      AIF   ('&HIARCHY' LT '0' OR '&HIARCHY' GT '1').E5              02900000
         AGO   .CONT                                                    02950000
.E4      IHBERMAC 36,,&REG                                              03000000
         AGO   .EXIT                                                    03050000
.E1      IHBERMAC 95                                                    03100000
         AGO   .EXIT                                                    03150000
.E2      IHBERMAC 84                                                    03200000
         AGO   .EXIT                                                    03250000
.E3      IHBERMAC 75                                                    03300000
         AGO   .EXIT                                                    03350000
.E5      IHBERMAC 195                                                   03400000
.EXIT    ANOP                                                           03425000
&SYSPLIST8 SETC '&SAVEPLIST8'                                      @L2A 03450000
         MEND                                                           03475000
**/                                                                     03500000
*XCTLX:  MACRO                                                          03550000
*        KEYS(DCB,DE,EP,REGS,PARAM,SF,VL,MF,LSEARCH,PLIST8,PLIST4)      03600000
*                                                ;        /*     @L2C*/ 03650000
*        ANS('?'||MACLABEL||'XCTLXP '||MACLIST||MACKEYS||';');          03700000
*                                                         /* @ZMB0056*/ 03750000
*%END;                                                    /* @ZMB0056*/ 03800000
